                                  MODFLOW-2005     
      U.S. GEOLOGICAL SURVEY MODULAR FINITE-DIFFERENCE GROUND-WATER FLOW MODEL
                            VERSION 1.11.00 8/8/2013

 LIST FILE: output.dat
                         UNIT    3

 OPENING discret.dat
 FILE TYPE:DIS   UNIT  105   STATUS:OLD    
 FORMAT:FORMATTED              ACCESS:SEQUENTIAL          

 OPENING bas6.dat
 FILE TYPE:BAS6   UNIT    1   STATUS:OLD    
 FORMAT:FORMATTED              ACCESS:SEQUENTIAL          

 OPENING lpf1.dat
 FILE TYPE:LPF   UNIT   31   STATUS:OLD    
 FORMAT:FORMATTED              ACCESS:SEQUENTIAL          

 OPENING pcg2.dat
 FILE TYPE:PCG   UNIT   23   STATUS:OLD    
 FORMAT:FORMATTED              ACCESS:SEQUENTIAL          

 OPENING wel.dat
 FILE TYPE:WEL   UNIT   12   STATUS:OLD    
 FORMAT:FORMATTED              ACCESS:SEQUENTIAL          

 OPENING drn.dat
 FILE TYPE:DRN   UNIT   13   STATUS:OLD    
 FORMAT:FORMATTED              ACCESS:SEQUENTIAL          

 OPENING riv.dat
 FILE TYPE:RIV   UNIT   14   STATUS:OLD    
 FORMAT:FORMATTED              ACCESS:SEQUENTIAL          

 OPENING ghb.dat
 FILE TYPE:GHB   UNIT   17   STATUS:OLD    
 FORMAT:FORMATTED              ACCESS:SEQUENTIAL          

 OPENING rch.dat
 FILE TYPE:RCH   UNIT   18   STATUS:OLD    
 FORMAT:FORMATTED              ACCESS:SEQUENTIAL          

 OPENING lmt6.dat
 FILE TYPE:LMT6   UNIT   66   STATUS:OLD    
 FORMAT:FORMATTED              ACCESS:SEQUENTIAL          

 OPENING oc.dat
 FILE TYPE:OC   UNIT   22   STATUS:OLD    
 FORMAT:FORMATTED              ACCESS:SEQUENTIAL          

 OPENING budget.dat
 FILE TYPE:DATA(BINARY)   UNIT   50   STATUS:UNKNOWN
 FORMAT:BINARY                 ACCESS:SEQUENTIAL          

 OPENING heads.dat
 FILE TYPE:DATA(BINARY)   UNIT   51   STATUS:UNKNOWN
 FORMAT:BINARY                 ACCESS:SEQUENTIAL          

 OPENING ddown.dat
 FILE TYPE:DATA(BINARY)   UNIT   52   STATUS:UNKNOWN
 FORMAT:BINARY                 ACCESS:SEQUENTIAL          

 BAS -- BASIC PACKAGE, VERSION 7, 5/2/2005 INPUT READ FROM UNIT    1
 
 MODFLOW was compiled using mixed precision
 Precision of REAL variables:           6
 Precision of DOUBLE PRECISION variables:          15

 DISCRETIZATION INPUT DATA READ FROM UNIT  105
 # Discretization file for MODFLOW-2000, generated by PMWIN
    3 LAYERS        40 ROWS        40 COLUMNS
    2 STRESS PERIOD(S) IN SIMULATION
 MODEL TIME UNIT IS DAYS
 MODEL LENGTH UNIT IS UNDEFINED
  Confining bed flag for each layer:
   0   0   0



                               DELR
 READING ON UNIT  105 WITH FORMAT: (15G14.0)           



                               DELC
 READING ON UNIT  105 WITH FORMAT: (15G14.0)           



           TOP ELEVATION OF LAYER 1
 READING ON UNIT  105 WITH FORMAT: (15G14.0)           



             MODEL LAYER BOTTOM EL. FOR LAYER   1
 READING ON UNIT  105 WITH FORMAT: (15G14.0)           



             MODEL LAYER BOTTOM EL. FOR LAYER   2
 READING ON UNIT  105 WITH FORMAT: (15G14.0)           



             MODEL LAYER BOTTOM EL. FOR LAYER   3
 READING ON UNIT  105 WITH FORMAT: (15G14.0)           


 STRESS PERIOD     LENGTH       TIME STEPS     MULTIPLIER FOR DELT    SS FLAG
 ----------------------------------------------------------------------------
        1        1.0000000          1                    1.000         SS
        2         30000.00        300                    1.000         TR

 COMBINED STEADY-STATE AND TRANSIENT SIMULATION



 
 # Basic package file for MODFLOW-2000, generated by PMWIN                       
 THE FREE FORMAT OPTION HAS BEEN SELECTED

           BOUNDARY ARRAY =              1 FOR LAYER   1

           BOUNDARY ARRAY =              1 FOR LAYER   2

           BOUNDARY ARRAY =              1 FOR LAYER   3

 AQUIFER HEAD WILL BE SET TO  -999.99     AT ALL NO-FLOW NODES (IBOUND=0).



                       INITIAL HEAD FOR LAYER   1
 READING ON UNIT    1 WITH FORMAT: (15G14.0)           



                       INITIAL HEAD FOR LAYER   2
 READING ON UNIT    1 WITH FORMAT: (15G14.0)           



                       INITIAL HEAD FOR LAYER   3
 READING ON UNIT    1 WITH FORMAT: (15G14.0)           

 OUTPUT CONTROL IS SPECIFIED EVERY TIME STEP
 HEAD PRINT FORMAT CODE IS   0    DRAWDOWN PRINT FORMAT CODE IS   0
 HEADS WILL BE SAVED ON UNIT   51    DRAWDOWNS WILL BE SAVED ON UNIT   52

 LPF -- LAYER-PROPERTY FLOW PACKAGE, VERSION 7, 5/2/2005
         INPUT READ FROM UNIT   31
 # Layer-Property flow template file for MODFLOW-2000/2005, generated by PMWIN.
 CELL-BY-CELL FLOWS WILL BE SAVED ON UNIT   50
 HEAD AT CELLS THAT CONVERT TO DRY= -1.00000E+30
 No named parameters

   LAYER FLAGS:
 LAYER       LAYTYP        LAYAVG         CHANI        LAYVKA        LAYWET
 ---------------------------------------------------------------------------
    1             3             0     1.000E+00             1             0
    2             3             0     1.000E+00             1             0
    3             3             0     1.000E+00             1             0

   INTERPRETATION OF LAYER FLAGS:
                        INTERBLOCK     HORIZONTAL    DATA IN
         LAYER TYPE   TRANSMISSIVITY   ANISOTROPY   ARRAY VKA   WETTABILITY
 LAYER      (LAYTYP)      (LAYAVG)       (CHANI)      (LAYVKA)      (LAYWET)
 ---------------------------------------------------------------------------
    1   CONVERTIBLE      HARMONIC     1.000E+00    ANISOTROPY  NON-WETTABLE
    2   CONVERTIBLE      HARMONIC     1.000E+00    ANISOTROPY  NON-WETTABLE
    3   CONVERTIBLE      HARMONIC     1.000E+00    ANISOTROPY  NON-WETTABLE

 WETTING CAPABILITY IS NOT ACTIVE IN ANY LAYER



              HYD. COND. ALONG ROWS FOR LAYER   1
 READING ON UNIT   31 WITH FORMAT: (15G14.0)           



            HORIZ. TO VERTICAL ANI. FOR LAYER   1
 READING ON UNIT   31 WITH FORMAT: (15G14.0)           



                   SPECIFIC STORAGE FOR LAYER   1
 READING ON UNIT   31 WITH FORMAT: (15G14.0)           



                     SPECIFIC YIELD FOR LAYER   1
 READING ON UNIT   31 WITH FORMAT: (15G14.0)           



              HYD. COND. ALONG ROWS FOR LAYER   2
 READING ON UNIT   31 WITH FORMAT: (15G14.0)           



            HORIZ. TO VERTICAL ANI. FOR LAYER   2
 READING ON UNIT   31 WITH FORMAT: (15G14.0)           



                   SPECIFIC STORAGE FOR LAYER   2
 READING ON UNIT   31 WITH FORMAT: (15G14.0)           



                     SPECIFIC YIELD FOR LAYER   2
 READING ON UNIT   31 WITH FORMAT: (15G14.0)           



              HYD. COND. ALONG ROWS FOR LAYER   3
 READING ON UNIT   31 WITH FORMAT: (15G14.0)           



            HORIZ. TO VERTICAL ANI. FOR LAYER   3
 READING ON UNIT   31 WITH FORMAT: (15G14.0)           



                   SPECIFIC STORAGE FOR LAYER   3
 READING ON UNIT   31 WITH FORMAT: (15G14.0)           



                     SPECIFIC YIELD FOR LAYER   3
 READING ON UNIT   31 WITH FORMAT: (15G14.0)           

 WEL -- WELL PACKAGE, VERSION 7, 5/2/2005 INPUT READ FROM UNIT   12
 No named parameters
 MAXIMUM OF      6 ACTIVE WELLS AT ONE TIME
 CELL-BY-CELL FLOWS WILL BE SAVED ON UNIT   50


     0 Well parameters

 DRN -- DRAIN PACKAGE, VERSION 7, 5/2/2005 INPUT READ FROM UNIT   13
 No named parameters
 MAXIMUM OF     18 ACTIVE DRAINS AT ONE TIME
 CELL-BY-CELL FLOWS WILL BE SAVED ON UNIT   50


     0 Drain parameters

 RIV -- RIVER PACKAGE, VERSION 7, 5/2/2005 INPUT READ FROM UNIT   14
 No named parameters
 MAXIMUM OF     40 ACTIVE RIVER REACHES AT ONE TIME
 CELL-BY-CELL FLOWS WILL BE SAVED ON UNIT   50


     0 River parameters

 GHB -- GENERAL-HEAD BOUNDARY PACKAGE, VERSION 7, 5/2/2005
         INPUT READ FROM UNIT   17
 No named parameters
 MAXIMUM OF     80 ACTIVE GHB CELLS AT ONE TIME
 CELL-BY-CELL FLOWS WILL BE SAVED ON UNIT   50


     0 GHB parameters

 RCH -- RECHARGE PACKAGE, VERSION 7, 5/2/2005 INPUT READ FROM UNIT   18
 No named parameters
 OPTION 1 -- RECHARGE TO TOP LAYER
 CELL-BY-CELL FLOWS WILL BE SAVED ON UNIT   50


     0 Recharge parameters

 PCG -- CONJUGATE-GRADIENT SOLUTION PACKAGE, VERSION 7, 5/2/2005
 MAXIMUM OF     50 CALLS OF SOLUTION ROUTINE
 MAXIMUM OF     30 INTERNAL ITERATIONS PER CALL TO SOLUTION ROUTINE
 MATRIX PRECONDITIONING TYPE :    1



                                    SOLUTION BY THE CONJUGATE-GRADIENT METHOD
                                   -------------------------------------------
                    MAXIMUM NUMBER OF CALLS TO PCG ROUTINE =       50
                        MAXIMUM ITERATIONS PER CALL TO PCG =       30
                               MATRIX PRECONDITIONING TYPE =        1
        RELAXATION FACTOR (ONLY USED WITH PRECOND. TYPE 1) =    0.99000E+00
 PARAMETER OF POLYNOMIAL PRECOND. = 2 (2) OR IS CALCULATED :        1
                         HEAD CHANGE CRITERION FOR CLOSURE =    0.10000E-02
                     RESIDUAL CHANGE CRITERION FOR CLOSURE =    0.10000E-02
            PCG HEAD AND RESIDUAL CHANGE PRINTOUT INTERVAL =        1
     PRINTING FROM SOLVER IS LIMITED(1) OR SUPPRESSED (>1) =        0
                            STEADY-STATE DAMPING PARAMETER =    0.10000E+01
                               TRANSIENT DAMPING PARAMETER =    0.10000E+01


 ***Link-MT3DMS Package v7***
 OPENING LINK-MT3DMS OUTPUT FILE: MT3D.FLO                                                                                                                                                                                                
 ON UNIT NUMBER:   333
 FILE TYPE: UNFORMATTED
 HEADER OPTION: EXTENDED
 ***Link-MT3DMS Package v7***

1
                            STRESS PERIOD NO.    1, LENGTH =  1.0000000    
                            -----------------------------------------------

                              NUMBER OF TIME STEPS =     1

                               MULTIPLIER FOR DELT =     1.000

                            INITIAL TIME STEP SIZE =  1.0000000    

      0 WELLS

 DRAIN NO.  LAYER   ROW   COL     DRAIN EL.  CONDUCTANCE         
 ----------------------------------------------------------------
      1      1      7     13       14.00           27.42    
      2      1      8     12       14.00           27.42    
      3      1      8     13       14.00           27.42    
      4      1      8     14       14.00           27.42    
      5      1      9     11       14.00           27.42    
      6      1      9     12       14.00           27.42    
      7      1      9     13       14.00           27.42    
      8      1      9     14       14.00           27.42    
      9      1      9     15       14.00           27.42    
     10      1     10     12       14.00           27.42    
     11      1     10     13       14.00           27.42    
     12      1     10     14       14.00           27.42    
     13      1     11     13       14.00           27.42    
     14      1     29     30       13.00           245.3    
     15      1     30     29       13.00           245.3    
     16      1     30     30       13.00           245.3    
     17      1     30     31       13.00           245.3    
     18      1     31     30       13.00           245.3    

     18 DRAINS

 REACH NO.  LAYER   ROW   COL     STAGE      CONDUCTANCE     BOTTOM EL.         
 -------------------------------------------------------------------------------
      1      1      1     40      10.000           331.9           7.000    
      2      1      2     40      10.000           331.9           7.000    
      3      1      3     40      10.000           331.9           7.000    
      4      1      4     40      10.000           331.9           7.000    
      5      1      5     40      10.000           331.9           7.000    
      6      1      6     40      10.000           331.9           7.000    
      7      1      7     40      10.000           331.9           7.000    
      8      1      8     40      10.000           331.9           7.000    
      9      1      9     40      10.000           331.9           7.000    
     10      1     10     40      10.000           331.9           7.000    
     11      1     11     40      10.000           331.9           7.000    
     12      1     12     40      10.000           331.9           7.000    
     13      1     13     40      10.000           331.9           7.000    
     14      1     14     40      10.000           331.9           7.000    
     15      1     15     40      10.000           331.9           7.000    
     16      1     16     40      10.000           331.9           7.000    
     17      1     17     40      10.000           331.9           7.000    
     18      1     18     40      10.000           331.9           7.000    
     19      1     19     40      10.000           331.9           7.000    
     20      1     20     40      10.000           331.9           7.000    
     21      1     21     40      10.000           331.9           7.000    
     22      1     22     40      10.000           331.9           7.000    
     23      1     23     40      10.000           331.9           7.000    
     24      1     24     40      10.000           331.9           7.000    
     25      1     25     40      10.000           331.9           7.000    
     26      1     26     40      10.000           331.9           7.000    
     27      1     27     40      10.000           331.9           7.000    
     28      1     28     40      10.000           331.9           7.000    
     29      1     29     40      10.000           331.9           7.000    
     30      1     30     40      10.000           331.9           7.000    
     31      1     31     40      10.000           331.9           7.000    
     32      1     32     40      10.000           331.9           7.000    
     33      1     33     40      10.000           331.9           7.000    
     34      1     34     40      10.000           331.9           7.000    
     35      1     35     40      10.000           331.9           7.000    
     36      1     36     40      10.000           331.9           7.000    
     37      1     37     40      10.000           331.9           7.000    
     38      1     38     40      10.000           331.9           7.000    
     39      1     39     40      10.000           331.9           7.000    
     40      1     40     40      10.000           331.9           7.000    

     40 RIVER REACHES

 BOUND. NO. LAYER   ROW   COL     STAGE      CONDUCTANCE         
 ----------------------------------------------------------------
      1      2      1     40      10.000           101.0    
      2      2      2     40      10.000           101.0    
      3      2      3     40      10.000           101.0    
      4      2      4     40      10.000           101.0    
      5      2      5     40      10.000           101.0    
      6      2      6     40      10.000           101.0    
      7      2      7     40      10.000           101.0    
      8      2      8     40      10.000           101.0    
      9      2      9     40      10.000           101.0    
     10      2     10     40      10.000           101.0    
     11      2     11     40      10.000           101.0    
     12      2     12     40      10.000           101.0    
     13      2     13     40      10.000           101.0    
     14      2     14     40      10.000           101.0    
     15      2     15     40      10.000           101.0    
     16      2     16     40      10.000           101.0    
     17      2     17     40      10.000           101.0    
     18      2     18     40      10.000           101.0    
     19      2     19     40      10.000           101.0    
     20      2     20     40      10.000           101.0    
     21      2     21     40      10.000           101.0    
     22      2     22     40      10.000           101.0    
     23      2     23     40      10.000           101.0    
     24      2     24     40      10.000           101.0    
     25      2     25     40      10.000           101.0    
     26      2     26     40      10.000           101.0    
     27      2     27     40      10.000           101.0    
     28      2     28     40      10.000           101.0    
     29      2     29     40      10.000           101.0    
     30      2     30     40      10.000           101.0    
     31      2     31     40      10.000           101.0    
     32      2     32     40      10.000           101.0    
     33      2     33     40      10.000           101.0    
     34      2     34     40      10.000           101.0    
     35      2     35     40      10.000           101.0    
     36      2     36     40      10.000           101.0    
     37      2     37     40      10.000           101.0    
     38      2     38     40      10.000           101.0    
     39      2     39     40      10.000           101.0    
     40      2     40     40      10.000           101.0    
     41      3      1     40      10.000           25.06    
     42      3      2     40      10.000           25.06    
     43      3      3     40      10.000           25.06    
     44      3      4     40      10.000           25.06    
     45      3      5     40      10.000           25.06    
     46      3      6     40      10.000           25.06    
     47      3      7     40      10.000           25.06    
     48      3      8     40      10.000           25.06    
     49      3      9     40      10.000           25.06    
     50      3     10     40      10.000           25.06    
     51      3     11     40      10.000           25.06    
     52      3     12     40      10.000           25.06    
     53      3     13     40      10.000           25.06    
     54      3     14     40      10.000           25.06    
     55      3     15     40      10.000           25.06    
     56      3     16     40      10.000           25.06    
     57      3     17     40      10.000           25.06    
     58      3     18     40      10.000           25.06    
     59      3     19     40      10.000           25.06    
     60      3     20     40      10.000           25.06    
     61      3     21     40      10.000           25.06    
     62      3     22     40      10.000           25.06    
     63      3     23     40      10.000           25.06    
     64      3     24     40      10.000           25.06    
     65      3     25     40      10.000           25.06    
     66      3     26     40      10.000           25.06    
     67      3     27     40      10.000           25.06    
     68      3     28     40      10.000           25.06    
     69      3     29     40      10.000           25.06    
     70      3     30     40      10.000           25.06    
     71      3     31     40      10.000           25.06    
     72      3     32     40      10.000           25.06    
     73      3     33     40      10.000           25.06    
     74      3     34     40      10.000           25.06    
     75      3     35     40      10.000           25.06    
     76      3     36     40      10.000           25.06    
     77      3     37     40      10.000           25.06    
     78      3     38     40      10.000           25.06    
     79      3     39     40      10.000           25.06    
     80      3     40     40      10.000           25.06    

     80 GHB CELLS



                           RECHARGE
 READING ON UNIT   18 WITH FORMAT: (15G14.0)           
 
 SOLVING FOR HEAD 


     3 CALLS TO PCG ROUTINE FOR TIME STEP   1 IN STRESS PERIOD    1
    30 TOTAL ITERATIONS

 MAXIMUM HEAD CHANGE FOR EACH ITERATION (1 INDICATES THE FIRST INNER ITERATION):

    HEAD CHANGE    HEAD CHANGE    HEAD CHANGE    HEAD CHANGE    HEAD CHANGE 
   LAYER,ROW,COL  LAYER,ROW,COL  LAYER,ROW,COL  LAYER,ROW,COL  LAYER,ROW,COL
 ---------------------------------------------------------------------------
  1  0.3282E-03  0  0.4045E-03  0  0.5221E-03  0  0.4568E-03  0  0.4193E-03
   (  1, 40,  6)  (  1, 37,  1)  (  2, 30,  1)  (  1, 40,  7)  (  1, 40,  4)
  0  0.3232E-03  0  0.3535E-03  0  0.3004E-03  0  0.1551E-03  0  0.9988E-04
   (  2,  4,  9)  (  2,  5,  1)  (  3,  1, 34)  (  2,  6, 32)  (  3,  1, 39)
  0  0.3424E-04  0  0.2740E-04  0  0.2220E-04  0 -0.1045E-04  0  0.7147E-05
   (  3, 40, 18)  (  1, 40, 10)  (  1, 40,  6)  (  1,  1,  4)  (  2, 37, 12)
  0  0.5617E-05  0  0.3962E-05  0 -0.1804E-05  0  0.1268E-05  0  0.1074E-05
   (  1, 40,  9)  (  1, 40,  6)  (  1,  5,  1)  (  3, 40, 39)  (  3, 40, 39)
  0  0.6461E-06  0  0.3458E-06  0  0.2177E-06  1  0.2525E-05  0  0.2638E-05
   (  2, 40, 38)  (  2, 35, 39)  (  3, 36, 24)  (  1,  2, 40)  (  3,  5, 38)
  0 -0.1880E-05  0 -0.1713E-05  0 -0.1423E-05  0 -0.7612E-06  1 -0.4459E-06
   (  1, 40,  4)  (  1, 40,  2)  (  1, 32,  1)  (  2, 28,  1)  (  3,  1, 40)

 MAXIMUM RESIDUAL FOR EACH ITERATION (1 INDICATES THE FIRST INNER ITERATION):

    RESIDUAL       RESIDUAL       RESIDUAL       RESIDUAL       RESIDUAL    
   LAYER,ROW,COL  LAYER,ROW,COL  LAYER,ROW,COL  LAYER,ROW,COL  LAYER,ROW,COL
 ---------------------------------------------------------------------------
  1 -0.3459      0 -0.6504      0 -0.6581      0 -0.5127      0 -0.3650    
   (  2,  2, 40)  (  2,  5, 37)  (  2, 13, 38)  (  2,  2, 35)  (  2,  9, 34)
  0 -0.5073      0 -0.5560      0 -0.3704      0  0.2262      0  0.1437    
   (  2,  3, 37)  (  2,  3, 37)  (  2, 27, 40)  (  1,  3, 37)  (  2,  1, 38)
  0  0.8591E-01  0  0.3805E-01  0 -0.2787E-01  0 -0.2568E-01  0 -0.1614E-01
   (  2,  6, 39)  (  2, 14, 29)  (  1,  7, 34)  (  3, 39, 40)  (  3, 39, 40)
  0  0.8551E-02  0 -0.6713E-02  0 -0.4943E-02  0 -0.2217E-02  0  0.2018E-02
   (  2,  4, 29)  (  3, 40, 39)  (  3, 40, 39)  (  2,  5, 32)  (  3, 40, 39)
  0  0.2394E-02  0  0.1316E-02  0 -0.3739E-03  1  0.4245E-02  0  0.4241E-02
   (  3, 40, 39)  (  3, 40, 39)  (  1, 11, 34)  (  1,  1, 39)  (  1,  1, 40)
  0  0.3825E-02  0  0.3816E-02  0  0.1843E-02  0 -0.9863E-03  1  0.8097E-03
   (  1,  2, 40)  (  2,  3, 39)  (  2,  2, 39)  (  2, 21, 39)  (  1,  2, 39)



 HEAD/DRAWDOWN PRINTOUT FLAG = 1     TOTAL BUDGET PRINTOUT FLAG = 1
 CELL-BY-CELL FLOW TERM FLAG = 1

 OUTPUT FLAGS FOR EACH LAYER:
          HEAD    DRAWDOWN  HEAD  DRAWDOWN
 LAYER  PRINTOUT  PRINTOUT  SAVE    SAVE
 -----------------------------------------
    1       0         0       1       1
    2       0         0       1       1
    3       0         0       1       1
 UBUDSV SAVING "   CONSTANT HEAD" ON UNIT 50 AT TIME STEP  1, STRESS PERIOD    1
 UBUDSV SAVING "FLOW RIGHT FACE " ON UNIT 50 AT TIME STEP  1, STRESS PERIOD    1
 UBUDSV SAVING "FLOW FRONT FACE " ON UNIT 50 AT TIME STEP  1, STRESS PERIOD    1
 UBUDSV SAVING "FLOW LOWER FACE " ON UNIT 50 AT TIME STEP  1, STRESS PERIOD    1
 UBUDSV SAVING "          DRAINS" ON UNIT 50 AT TIME STEP  1, STRESS PERIOD    1
 UBUDSV SAVING "   RIVER LEAKAGE" ON UNIT 50 AT TIME STEP  1, STRESS PERIOD    1
 UBUDSV SAVING " HEAD DEP BOUNDS" ON UNIT 50 AT TIME STEP  1, STRESS PERIOD    1
 UBUDSV SAVING "        RECHARGE" ON UNIT 50 AT TIME STEP  1, STRESS PERIOD    1

 SAVING SATURATED THICKNESS AND FLOW TERMS ON UNIT  333 FOR MT3DMS
 BY THE LINK-MT3DMS PACKAGE V7 AT TIME STEP    1, STRESS PERIOD    1


 HEAD WILL BE SAVED ON UNIT   51 AT END OF TIME STEP    1, STRESS PERIOD    1

 DRAWDOWN WILL BE SAVED ON UNIT   52 AT END OF TIME STEP    1, STRESS PERIOD    1
1
  VOLUMETRIC BUDGET FOR ENTIRE MODEL AT END OF TIME STEP    1, STRESS PERIOD   1
  ------------------------------------------------------------------------------

     CUMULATIVE VOLUMES      L**3       RATES FOR THIS TIME STEP      L**3/T
     ------------------                 ------------------------

           IN:                                      IN:
           ---                                      ---
             STORAGE =           0.0000               STORAGE =           0.0000
       CONSTANT HEAD =           0.0000         CONSTANT HEAD =           0.0000
               WELLS =           0.0000                 WELLS =           0.0000
              DRAINS =           0.0000                DRAINS =           0.0000
       RIVER LEAKAGE =           0.0000         RIVER LEAKAGE =           0.0000
     HEAD DEP BOUNDS =           0.0000       HEAD DEP BOUNDS =           0.0000
            RECHARGE =       84511.4688              RECHARGE =       84511.4688

            TOTAL IN =       84511.4688              TOTAL IN =       84511.4688

          OUT:                                     OUT:
          ----                                     ----
             STORAGE =           0.0000               STORAGE =           0.0000
       CONSTANT HEAD =           0.0000         CONSTANT HEAD =           0.0000
               WELLS =           0.0000                 WELLS =           0.0000
              DRAINS =        3773.2424                DRAINS =        3773.2424
       RIVER LEAKAGE =       58266.6367         RIVER LEAKAGE =       58266.6367
     HEAD DEP BOUNDS =       22471.6582       HEAD DEP BOUNDS =       22471.6582
            RECHARGE =           0.0000              RECHARGE =           0.0000

           TOTAL OUT =       84511.5391             TOTAL OUT =       84511.5391

            IN - OUT =      -7.0312E-02              IN - OUT =      -7.0312E-02

 PERCENT DISCREPANCY =          -0.00     PERCENT DISCREPANCY =          -0.00






         TIME SUMMARY AT END OF TIME STEP    1 IN STRESS PERIOD    1
                    SECONDS     MINUTES      HOURS       DAYS        YEARS
                    -----------------------------------------------------------
   TIME STEP LENGTH  86400.      1440.0      24.000     1.00000     2.73785E-03
 STRESS PERIOD TIME  86400.      1440.0      24.000     1.00000     2.73785E-03
         TOTAL TIME  86400.      1440.0      24.000     1.00000     2.73785E-03
1
1
                            STRESS PERIOD NO.    2, LENGTH =   30000.00    
                            -----------------------------------------------

                              NUMBER OF TIME STEPS =   300

                               MULTIPLIER FOR DELT =     1.000

                            INITIAL TIME STEP SIZE =  100.00000    

 WELL NO.  LAYER   ROW   COL   STRESS RATE         
 --------------------------------------------------
      1      1     14     13       0.000    
      2      1     27     23      -9000.    
      3      2     14     25      -7930.    
      4      2     23     13      -9000.    
      5      3      7      9       0.000    
      6      3     28     29     -0.1420E+05

      6 WELLS

 DRAIN NO.  LAYER   ROW   COL     DRAIN EL.  CONDUCTANCE         
 ----------------------------------------------------------------
      1      1      7     13       14.00           27.42    
      2      1      8     12       14.00           27.42    
      3      1      8     13       14.00           27.42    
      4      1      8     14       14.00           27.42    
      5      1      9     11       14.00           27.42    
      6      1      9     12       14.00           27.42    
      7      1      9     13       14.00           27.42    
      8      1      9     14       14.00           27.42    
      9      1      9     15       14.00           27.42    
     10      1     10     12       14.00           27.42    
     11      1     10     13       14.00           27.42    
     12      1     10     14       14.00           27.42    
     13      1     11     13       14.00           27.42    
     14      1     29     30       13.00           245.3    
     15      1     30     29       13.00           245.3    
     16      1     30     30       13.00           245.3    
     17      1     30     31       13.00           245.3    
     18      1     31     30       13.00           245.3    

     18 DRAINS

 REACH NO.  LAYER   ROW   COL     STAGE      CONDUCTANCE     BOTTOM EL.         
 -------------------------------------------------------------------------------
      1      1      1     40      10.000           331.9           7.000    
      2      1      2     40      10.000           331.9           7.000    
      3      1      3     40      10.000           331.9           7.000    
      4      1      4     40      10.000           331.9           7.000    
      5      1      5     40      10.000           331.9           7.000    
      6      1      6     40      10.000           331.9           7.000    
      7      1      7     40      10.000           331.9           7.000    
      8      1      8     40      10.000           331.9           7.000    
      9      1      9     40      10.000           331.9           7.000    
     10      1     10     40      10.000           331.9           7.000    
     11      1     11     40      10.000           331.9           7.000    
     12      1     12     40      10.000           331.9           7.000    
     13      1     13     40      10.000           331.9           7.000    
     14      1     14     40      10.000           331.9           7.000    
     15      1     15     40      10.000           331.9           7.000    
     16      1     16     40      10.000           331.9           7.000    
     17      1     17     40      10.000           331.9           7.000    
     18      1     18     40      10.000           331.9           7.000    
     19      1     19     40      10.000           331.9           7.000    
     20      1     20     40      10.000           331.9           7.000    
     21      1     21     40      10.000           331.9           7.000    
     22      1     22     40      10.000           331.9           7.000    
     23      1     23     40      10.000           331.9           7.000    
     24      1     24     40      10.000           331.9           7.000    
     25      1     25     40      10.000           331.9           7.000    
     26      1     26     40      10.000           331.9           7.000    
     27      1     27     40      10.000           331.9           7.000    
     28      1     28     40      10.000           331.9           7.000    
     29      1     29     40      10.000           331.9           7.000    
     30      1     30     40      10.000           331.9           7.000    
     31      1     31     40      10.000           331.9           7.000    
     32      1     32     40      10.000           331.9           7.000    
     33      1     33     40      10.000           331.9           7.000    
     34      1     34     40      10.000           331.9           7.000    
     35      1     35     40      10.000           331.9           7.000    
     36      1     36     40      10.000           331.9           7.000    
     37      1     37     40      10.000           331.9           7.000    
     38      1     38     40      10.000           331.9           7.000    
     39      1     39     40      10.000           331.9           7.000    
     40      1     40     40      10.000           331.9           7.000    

     40 RIVER REACHES

 BOUND. NO. LAYER   ROW   COL     STAGE      CONDUCTANCE         
 ----------------------------------------------------------------
      1      2      1     40      10.000           101.0    
      2      2      2     40      10.000           101.0    
      3      2      3     40      10.000           101.0    
      4      2      4     40      10.000           101.0    
      5      2      5     40      10.000           101.0    
      6      2      6     40      10.000           101.0    
      7      2      7     40      10.000           101.0    
      8      2      8     40      10.000           101.0    
      9      2      9     40      10.000           101.0    
     10      2     10     40      10.000           101.0    
     11      2     11     40      10.000           101.0    
     12      2     12     40      10.000           101.0    
     13      2     13     40      10.000           101.0    
     14      2     14     40      10.000           101.0    
     15      2     15     40      10.000           101.0    
     16      2     16     40      10.000           101.0    
     17      2     17     40      10.000           101.0    
     18      2     18     40      10.000           101.0    
     19      2     19     40      10.000           101.0    
     20      2     20     40      10.000           101.0    
     21      2     21     40      10.000           101.0    
     22      2     22     40      10.000           101.0    
     23      2     23     40      10.000           101.0    
     24      2     24     40      10.000           101.0    
     25      2     25     40      10.000           101.0    
     26      2     26     40      10.000           101.0    
     27      2     27     40      10.000           101.0    
     28      2     28     40      10.000           101.0    
     29      2     29     40      10.000           101.0    
     30      2     30     40      10.000           101.0    
     31      2     31     40      10.000           101.0    
     32      2     32     40      10.000           101.0    
     33      2     33     40      10.000           101.0    
     34      2     34     40      10.000           101.0    
     35      2     35     40      10.000           101.0    
     36      2     36     40      10.000           101.0    
     37      2     37     40      10.000           101.0    
     38      2     38     40      10.000           101.0    
     39      2     39     40      10.000           101.0    
     40      2     40     40      10.000           101.0    
     41      3      1     40      10.000           25.06    
     42      3      2     40      10.000           25.06    
     43      3      3     40      10.000           25.06    
     44      3      4     40      10.000           25.06    
     45      3      5     40      10.000           25.06    
     46      3      6     40      10.000           25.06    
     47      3      7     40      10.000           25.06    
     48      3      8     40      10.000           25.06    
     49      3      9     40      10.000           25.06    
     50      3     10     40      10.000           25.06    
     51      3     11     40      10.000           25.06    
     52      3     12     40      10.000           25.06    
     53      3     13     40      10.000           25.06    
     54      3     14     40      10.000           25.06    
     55      3     15     40      10.000           25.06    
     56      3     16     40      10.000           25.06    
     57      3     17     40      10.000           25.06    
     58      3     18     40      10.000           25.06    
     59      3     19     40      10.000           25.06    
     60      3     20     40      10.000           25.06    
     61      3     21     40      10.000           25.06    
     62      3     22     40      10.000           25.06    
     63      3     23     40      10.000           25.06    
     64      3     24     40      10.000           25.06    
     65      3     25     40      10.000           25.06    
     66      3     26     40      10.000           25.06    
     67      3     27     40      10.000           25.06    
     68      3     28     40      10.000           25.06    
     69      3     29     40      10.000           25.06    
     70      3     30     40      10.000           25.06    
     71      3     31     40      10.000           25.06    
     72      3     32     40      10.000           25.06    
     73      3     33     40      10.000           25.06    
     74      3     34     40      10.000           25.06    
     75      3     35     40      10.000           25.06    
     76      3     36     40      10.000           25.06    
     77      3     37     40      10.000           25.06    
     78      3     38     40      10.000           25.06    
     79      3     39     40      10.000           25.06    
     80      3     40     40      10.000           25.06    

     80 GHB CELLS



                           RECHARGE
 READING ON UNIT   18 WITH FORMAT: (15G14.0)           
 
 SOLVING FOR HEAD 


     4 CALLS TO PCG ROUTINE FOR TIME STEP   1 IN STRESS PERIOD    2
    24 TOTAL ITERATIONS

 MAXIMUM HEAD CHANGE FOR EACH ITERATION (1 INDICATES THE FIRST INNER ITERATION):

    HEAD CHANGE    HEAD CHANGE    HEAD CHANGE    HEAD CHANGE    HEAD CHANGE 
   LAYER,ROW,COL  LAYER,ROW,COL  LAYER,ROW,COL  LAYER,ROW,COL  LAYER,ROW,COL
 ---------------------------------------------------------------------------
  1  -1.086      0 -0.1818      0 -0.3431E-01  0  0.1065E-01  0 -0.2067E-02
   (  3, 28, 29)  (  2, 23, 13)  (  1, 27, 23)  (  2, 23, 13)  (  1, 24, 13)
  0 -0.7044E-03  0 -0.1895E-03  0  0.7697E-04  0 -0.2852E-04  0 -0.1548E-04
   (  2, 24, 13)  (  2, 23, 13)  (  3,  2, 25)  (  3,  2, 26)  (  3,  2, 32)
  0 -0.5450E-05  0  0.1687E-05  0 -0.1061E-05  0  0.2997E-06  1 -0.1086E-02
   (  3,  1, 38)  (  3,  1, 39)  (  3,  1, 39)  (  3,  1, 40)  (  1, 27, 23)
  0  0.1285E-03  0 -0.1772E-04  0 -0.6834E-05  0 -0.1354E-05  0  0.4291E-06
   (  2, 27, 23)  (  3, 28, 24)  (  2, 27, 22)  (  2, 27, 22)  (  2, 28, 22)
  0 -0.1043E-06  1 -0.1057E-05  0  0.8771E-07  1  0.4026E-07
   (  2, 28, 21)  (  1, 27, 23)  (  2, 27, 23)  (  2, 27, 23)

 MAXIMUM RESIDUAL FOR EACH ITERATION (1 INDICATES THE FIRST INNER ITERATION):

    RESIDUAL       RESIDUAL       RESIDUAL       RESIDUAL       RESIDUAL    
   LAYER,ROW,COL  LAYER,ROW,COL  LAYER,ROW,COL  LAYER,ROW,COL  LAYER,ROW,COL
 ---------------------------------------------------------------------------
  1   2656.      0   671.2      0   148.8      0   35.05      0  -10.87    
   (  1, 27, 23)  (  3, 27, 30)  (  3, 29, 28)  (  3, 30, 27)  (  1, 27, 23)
  0  -2.966      0 -0.8274      0 -0.2612      0 -0.1146      0 -0.3626E-01
   (  1, 27, 23)  (  3, 28, 29)  (  1, 26, 24)  (  1, 26, 24)  (  1, 26, 24)
  0 -0.1201E-01  0 -0.3771E-02  0 -0.1369E-02  0 -0.4739E-03  1  -1.679    
   (  3, 25, 32)  (  3, 25, 32)  (  1, 28, 31)  (  1, 27, 32)  (  2, 27, 23)
  0 -0.3617      0  0.1240      0 -0.2924E-01  0 -0.8314E-02  0  0.2472E-02
   (  2, 27, 23)  (  2, 26, 23)  (  2, 26, 24)  (  2, 26, 24)  (  2, 25, 24)
  0  0.6603E-03  1  0.2036E-02  0 -0.9444E-03  1 -0.3673E-03
   (  2, 25, 24)  (  1, 27, 23)  (  2, 27, 23)  (  2, 27, 23)



 HEAD/DRAWDOWN PRINTOUT FLAG = 1     TOTAL BUDGET PRINTOUT FLAG = 1
 CELL-BY-CELL FLOW TERM FLAG = 1

 OUTPUT FLAGS FOR EACH LAYER:
          HEAD    DRAWDOWN  HEAD  DRAWDOWN
 LAYER  PRINTOUT  PRINTOUT  SAVE    SAVE
 -----------------------------------------
    1       0         0       1       1
    2       0         0       1       1
    3       0         0       1       1
 UBUDSV SAVING "         STORAGE" ON UNIT 50 AT TIME STEP  1, STRESS PERIOD    2
 UBUDSV SAVING "   CONSTANT HEAD" ON UNIT 50 AT TIME STEP  1, STRESS PERIOD    2
 UBUDSV SAVING "FLOW RIGHT FACE " ON UNIT 50 AT TIME STEP  1, STRESS PERIOD    2
 UBUDSV SAVING "FLOW FRONT FACE " ON UNIT 50 AT TIME STEP  1, STRESS PERIOD    2
 UBUDSV SAVING "FLOW LOWER FACE " ON UNIT 50 AT TIME STEP  1, STRESS PERIOD    2
 UBUDSV SAVING "           WELLS" ON UNIT 50 AT TIME STEP  1, STRESS PERIOD    2
 UBUDSV SAVING "          DRAINS" ON UNIT 50 AT TIME STEP  1, STRESS PERIOD    2
 UBUDSV SAVING "   RIVER LEAKAGE" ON UNIT 50 AT TIME STEP  1, STRESS PERIOD    2
 UBUDSV SAVING " HEAD DEP BOUNDS" ON UNIT 50 AT TIME STEP  1, STRESS PERIOD    2
 UBUDSV SAVING "        RECHARGE" ON UNIT 50 AT TIME STEP  1, STRESS PERIOD    2

 SAVING SATURATED THICKNESS AND FLOW TERMS ON UNIT  333 FOR MT3DMS
 BY THE LINK-MT3DMS PACKAGE V7 AT TIME STEP    1, STRESS PERIOD    2


 HEAD WILL BE SAVED ON UNIT   51 AT END OF TIME STEP    1, STRESS PERIOD    2

 DRAWDOWN WILL BE SAVED ON UNIT   52 AT END OF TIME STEP    1, STRESS PERIOD    2
1
  VOLUMETRIC BUDGET FOR ENTIRE MODEL AT END OF TIME STEP    1, STRESS PERIOD   2
  ------------------------------------------------------------------------------

     CUMULATIVE VOLUMES      L**3       RATES FOR THIS TIME STEP      L**3/T
     ------------------                 ------------------------

           IN:                                      IN:
           ---                                      ---
             STORAGE =     4003100.5000               STORAGE =       40031.0039
       CONSTANT HEAD =           0.0000         CONSTANT HEAD =           0.0000
               WELLS =           0.0000                 WELLS =           0.0000
              DRAINS =           0.0000                DRAINS =           0.0000
       RIVER LEAKAGE =           0.0000         RIVER LEAKAGE =           0.0000
     HEAD DEP BOUNDS =           0.0000       HEAD DEP BOUNDS =           0.0000
            RECHARGE =     8535658.0000              RECHARGE =       84511.4688

            TOTAL IN =    12538758.0000              TOTAL IN =      124542.4688

          OUT:                                     OUT:
          ----                                     ----
             STORAGE =           0.0000               STORAGE =           0.0000
       CONSTANT HEAD =           0.0000         CONSTANT HEAD =           0.0000
               WELLS =     4013000.0000                 WELLS =       40130.0000
              DRAINS =      374296.9688                DRAINS =        3705.2373
       RIVER LEAKAGE =     5883076.5000         RIVER LEAKAGE =       58248.1016
     HEAD DEP BOUNDS =     2268653.5000       HEAD DEP BOUNDS =       22461.8164
            RECHARGE =           0.0000              RECHARGE =           0.0000

           TOTAL OUT =    12539027.0000             TOTAL OUT =      124545.1562

            IN - OUT =        -269.0000              IN - OUT =          -2.6875

 PERCENT DISCREPANCY =          -0.00     PERCENT DISCREPANCY =          -0.00






         TIME SUMMARY AT END OF TIME STEP    1 IN STRESS PERIOD    2
                    SECONDS     MINUTES      HOURS       DAYS        YEARS
                    -----------------------------------------------------------
   TIME STEP LENGTH 8.64000E+06 1.44000E+05  2400.0     100.000     0.27379    
 STRESS PERIOD TIME 8.64000E+06 1.44000E+05  2400.0     100.000     0.27379    
         TOTAL TIME 8.72640E+06 1.45440E+05  2424.0      101.00     0.27652    
1
 
 SOLVING FOR HEAD 
     4 CALLS TO PCG ROUTINE FOR TIME STEP   2 IN STRESS PERIOD    2
    22 TOTAL ITERATIONS

 MAXIMUM HEAD CHANGE FOR EACH ITERATION (1 INDICATES THE FIRST INNER ITERATION):

    HEAD CHANGE    HEAD CHANGE    HEAD CHANGE    HEAD CHANGE    HEAD CHANGE 
   LAYER,ROW,COL  LAYER,ROW,COL  LAYER,ROW,COL  LAYER,ROW,COL  LAYER,ROW,COL
 ---------------------------------------------------------------------------
  1 -0.2170      0  0.1331E-01  0  0.4739E-02  0  0.1331E-02  0  0.2712E-03
   (  1, 27, 23)  (  2, 28, 24)  (  1, 27, 23)  (  1, 27, 23)  (  2, 26, 22)
  0  0.9648E-04  0 -0.4763E-04  0  0.1740E-04  0 -0.5237E-05  0 -0.2402E-05
   (  2, 26, 22)  (  3,  2, 27)  (  3,  1, 25)  (  3,  2, 27)  (  3,  2, 33)
  0 -0.9340E-06  0  0.3072E-06  1 -0.4991E-03  0  0.5393E-04  0  0.7956E-05
   (  3,  1, 40)  (  3,  1, 40)  (  1, 27, 23)  (  2, 27, 23)  (  2, 27, 23)
  0 -0.2949E-05  0 -0.5812E-06  0  0.1791E-06  0 -0.9500E-07  1 -0.6334E-06
   (  2, 27, 22)  (  2, 27, 22)  (  2, 28, 22)  (  3,  1, 40)  (  1, 27, 23)
  0 -0.8359E-07  1  0.3921E-07
   (  3,  1, 40)  (  3,  1, 40)

 MAXIMUM RESIDUAL FOR EACH ITERATION (1 INDICATES THE FIRST INNER ITERATION):

    RESIDUAL       RESIDUAL       RESIDUAL       RESIDUAL       RESIDUAL    
   LAYER,ROW,COL  LAYER,ROW,COL  LAYER,ROW,COL  LAYER,ROW,COL  LAYER,ROW,COL
 ---------------------------------------------------------------------------
  1  -125.1      0  -78.02      0  -20.26      0   3.597      0  -1.022    
   (  2, 27, 23)  (  1, 27, 23)  (  1, 27, 23)  (  2, 27, 23)  (  2, 26, 23)
  0 -0.3015      0  0.1277      0  0.4303E-01  0 -0.1294E-01  0 -0.3881E-02
   (  2, 28, 24)  (  2, 26, 24)  (  2, 26, 22)  (  2, 25, 24)  (  2, 26, 24)
  0 -0.1470E-02  0  0.3759E-03  1 -0.7136      0 -0.1569      0  0.5281E-01
   (  2, 26, 24)  (  3,  1, 38)  (  2, 27, 23)  (  2, 27, 23)  (  2, 26, 23)
  0 -0.1210E-01  0 -0.3551E-02  0  0.1096E-02  0  0.3231E-03  1  0.1200E-02
   (  2, 26, 24)  (  2, 26, 24)  (  2, 25, 24)  (  2, 25, 24)  (  1, 27, 23)
  0 -0.5935E-03  1 -0.2659E-03
   (  2, 27, 23)  (  2, 27, 23)



 HEAD/DRAWDOWN PRINTOUT FLAG = 1     TOTAL BUDGET PRINTOUT FLAG = 1
 CELL-BY-CELL FLOW TERM FLAG = 1

 OUTPUT FLAGS FOR EACH LAYER:
          HEAD    DRAWDOWN  HEAD  DRAWDOWN
 LAYER  PRINTOUT  PRINTOUT  SAVE    SAVE
 -----------------------------------------
    1       0         0       1       1
    2       0         0       1       1
    3       0         0       1       1
 UBUDSV SAVING "         STORAGE" ON UNIT 50 AT TIME STEP  2, STRESS PERIOD    2
 UBUDSV SAVING "   CONSTANT HEAD" ON UNIT 50 AT TIME STEP  2, STRESS PERIOD    2
 UBUDSV SAVING "FLOW RIGHT FACE " ON UNIT 50 AT TIME STEP  2, STRESS PERIOD    2
 UBUDSV SAVING "FLOW FRONT FACE " ON UNIT 50 AT TIME STEP  2, STRESS PERIOD    2
 UBUDSV SAVING "FLOW LOWER FACE " ON UNIT 50 AT TIME STEP  2, STRESS PERIOD    2
 UBUDSV SAVING "           WELLS" ON UNIT 50 AT TIME STEP  2, STRESS PERIOD    2
 UBUDSV SAVING "          DRAINS" ON UNIT 50 AT TIME STEP  2, STRESS PERIOD    2
 UBUDSV SAVING "   RIVER LEAKAGE" ON UNIT 50 AT TIME STEP  2, STRESS PERIOD    2
 UBUDSV SAVING " HEAD DEP BOUNDS" ON UNIT 50 AT TIME STEP  2, STRESS PERIOD    2
 UBUDSV SAVING "        RECHARGE" ON UNIT 50 AT TIME STEP  2, STRESS PERIOD    2

 SAVING SATURATED THICKNESS AND FLOW TERMS ON UNIT  333 FOR MT3DMS
 BY THE LINK-MT3DMS PACKAGE V7 AT TIME STEP    2, STRESS PERIOD    2


 HEAD WILL BE SAVED ON UNIT   51 AT END OF TIME STEP    2, STRESS PERIOD    2

 DRAWDOWN WILL BE SAVED ON UNIT   52 AT END OF TIME STEP    2, STRESS PERIOD    2
1
  VOLUMETRIC BUDGET FOR ENTIRE MODEL AT END OF TIME STEP    2, STRESS PERIOD   2
  ------------------------------------------------------------------------------

     CUMULATIVE VOLUMES      L**3       RATES FOR THIS TIME STEP      L**3/T
     ------------------                 ------------------------

           IN:                                      IN:
           ---                                      ---
             STORAGE =     7995907.5000               STORAGE =       39928.0703
       CONSTANT HEAD =           0.0000         CONSTANT HEAD =           0.0000
               WELLS =           0.0000                 WELLS =           0.0000
              DRAINS =           0.0000                DRAINS =           0.0000
       RIVER LEAKAGE =           0.0000         RIVER LEAKAGE =           0.0000
     HEAD DEP BOUNDS =           0.0000       HEAD DEP BOUNDS =           0.0000
            RECHARGE =    16986804.0000              RECHARGE =       84511.4688

            TOTAL IN =    24982712.0000              TOTAL IN =      124439.5391

          OUT:                                     OUT:
          ----                                     ----
             STORAGE =           0.0000               STORAGE =           0.0000
       CONSTANT HEAD =           0.0000         CONSTANT HEAD =           0.0000
               WELLS =     8026000.0000                 WELLS =       40130.0000
              DRAINS =      739722.4375                DRAINS =        3654.2546
       RIVER LEAKAGE =    11704295.0000         RIVER LEAKAGE =       58212.1836
     HEAD DEP BOUNDS =     4513243.0000       HEAD DEP BOUNDS =       22445.8926
            RECHARGE =           0.0000              RECHARGE =           0.0000

           TOTAL OUT =    24983260.0000             TOTAL OUT =      124442.3359

            IN - OUT =        -548.0000              IN - OUT =          -2.7969

 PERCENT DISCREPANCY =          -0.00     PERCENT DISCREPANCY =          -0.00






         TIME SUMMARY AT END OF TIME STEP    2 IN STRESS PERIOD    2
                    SECONDS     MINUTES      HOURS       DAYS        YEARS
                    -----------------------------------------------------------
   TIME STEP LENGTH 8.64000E+06 1.44000E+05  2400.0     100.000     0.27379    
 STRESS PERIOD TIME 1.72800E+07 2.88000E+05  4800.0      200.00     0.54757    
         TOTAL TIME 1.73664E+07 2.89440E+05  4824.0      201.00     0.55031    
1
 
 SOLVING FOR HEAD 
     4 CALLS TO PCG ROUTINE FOR TIME STEP   3 IN STRESS PERIOD    2
    20 TOTAL ITERATIONS

 MAXIMUM HEAD CHANGE FOR EACH ITERATION (1 INDICATES THE FIRST INNER ITERATION):

    HEAD CHANGE    HEAD CHANGE    HEAD CHANGE    HEAD CHANGE    HEAD CHANGE 
   LAYER,ROW,COL  LAYER,ROW,COL  LAYER,ROW,COL  LAYER,ROW,COL  LAYER,ROW,COL
 ---------------------------------------------------------------------------
  1 -0.1005      0 -0.9483E-02  0  0.2440E-02  0  0.6573E-03  0  0.1835E-03
   (  1, 27, 23)  (  3, 24, 25)  (  1, 27, 23)  (  3, 26, 23)  (  3, 28, 20)
  0 -0.7171E-04  0  0.2137E-04  0 -0.1415E-04  0 -0.3353E-05  0 -0.8543E-06
   (  3,  1, 35)  (  3,  1, 34)  (  3,  1, 34)  (  3,  2, 27)  (  3,  2, 35)
  0 -0.4653E-06  1 -0.2797E-03  0  0.2830E-04  0 -0.4615E-05  0 -0.1622E-05
   (  3,  1, 40)  (  1, 27, 23)  (  2, 27, 23)  (  3, 29, 25)  (  2, 27, 22)
  0 -0.3220E-06  0 -0.1407E-06  1 -0.3395E-06  0 -0.8660E-07  1  0.2843E-07
   (  2, 27, 22)  (  3,  1, 40)  (  1, 27, 23)  (  3,  1, 40)  (  2, 27, 23)

 MAXIMUM RESIDUAL FOR EACH ITERATION (1 INDICATES THE FIRST INNER ITERATION):

    RESIDUAL       RESIDUAL       RESIDUAL       RESIDUAL       RESIDUAL    
   LAYER,ROW,COL  LAYER,ROW,COL  LAYER,ROW,COL  LAYER,ROW,COL  LAYER,ROW,COL
 ---------------------------------------------------------------------------
  1  -63.26      0  -29.76      0  -5.353      0 -0.9881      0  0.5512    
   (  1, 27, 23)  (  1, 27, 23)  (  1, 27, 23)  (  2, 26, 22)  (  1, 27, 23)
  0  0.1607      0  0.4140E-01  0  0.1513E-01  0 -0.4251E-02  0  0.1309E-02
   (  1, 27, 23)  (  2, 26, 22)  (  2, 29, 25)  (  1, 27, 23)  (  1, 29, 22)
  0 -0.5232E-03  1  0.4033      0 -0.8749E-01  0  0.2864E-01  0 -0.6330E-02
   (  3,  1, 38)  (  1, 27, 23)  (  2, 27, 23)  (  2, 26, 23)  (  2, 26, 24)
  0 -0.1974E-02  0  0.6475E-03  1  0.1452E-02  0 -0.4461E-03  1  0.1690E-03
   (  2, 26, 24)  (  2, 25, 24)  (  1, 27, 23)  (  2, 27, 23)  (  1, 27, 23)



 HEAD/DRAWDOWN PRINTOUT FLAG = 1     TOTAL BUDGET PRINTOUT FLAG = 1
 CELL-BY-CELL FLOW TERM FLAG = 1

 OUTPUT FLAGS FOR EACH LAYER:
          HEAD    DRAWDOWN  HEAD  DRAWDOWN
 LAYER  PRINTOUT  PRINTOUT  SAVE    SAVE
 -----------------------------------------
    1       0         0       1       1
    2       0         0       1       1
    3       0         0       1       1
 UBUDSV SAVING "         STORAGE" ON UNIT 50 AT TIME STEP  3, STRESS PERIOD    2
 UBUDSV SAVING "   CONSTANT HEAD" ON UNIT 50 AT TIME STEP  3, STRESS PERIOD    2
 UBUDSV SAVING "FLOW RIGHT FACE " ON UNIT 50 AT TIME STEP  3, STRESS PERIOD    2
 UBUDSV SAVING "FLOW FRONT FACE " ON UNIT 50 AT TIME STEP  3, STRESS PERIOD    2
 UBUDSV SAVING "FLOW LOWER FACE " ON UNIT 50 AT TIME STEP  3, STRESS PERIOD    2
 UBUDSV SAVING "           WELLS" ON UNIT 50 AT TIME STEP  3, STRESS PERIOD    2
 UBUDSV SAVING "          DRAINS" ON UNIT 50 AT TIME STEP  3, STRESS PERIOD    2
 UBUDSV SAVING "   RIVER LEAKAGE" ON UNIT 50 AT TIME STEP  3, STRESS PERIOD    2
 UBUDSV SAVING " HEAD DEP BOUNDS" ON UNIT 50 AT TIME STEP  3, STRESS PERIOD    2
 UBUDSV SAVING "        RECHARGE" ON UNIT 50 AT TIME STEP  3, STRESS PERIOD    2

 SAVING SATURATED THICKNESS AND FLOW TERMS ON UNIT  333 FOR MT3DMS
 BY THE LINK-MT3DMS PACKAGE V7 AT TIME STEP    3, STRESS PERIOD    2


 HEAD WILL BE SAVED ON UNIT   51 AT END OF TIME STEP    3, STRESS PERIOD    2

 DRAWDOWN WILL BE SAVED ON UNIT   52 AT END OF TIME STEP    3, STRESS PERIOD    2
1
  VOLUMETRIC BUDGET FOR ENTIRE MODEL AT END OF TIME STEP    3, STRESS PERIOD   2
  ------------------------------------------------------------------------------

     CUMULATIVE VOLUMES      L**3       RATES FOR THIS TIME STEP      L**3/T
     ------------------                 ------------------------

           IN:                                      IN:
           ---                                      ---
             STORAGE =    11977226.0000               STORAGE =       39813.1875
       CONSTANT HEAD =           0.0000         CONSTANT HEAD =           0.0000
               WELLS =           0.0000                 WELLS =           0.0000
              DRAINS =           0.0000                DRAINS =           0.0000
       RIVER LEAKAGE =           0.0000         RIVER LEAKAGE =           0.0000
     HEAD DEP BOUNDS =           0.0000       HEAD DEP BOUNDS =           0.0000
            RECHARGE =    25437952.0000              RECHARGE =       84511.4688

            TOTAL IN =    37415176.0000              TOTAL IN =      124324.6562

          OUT:                                     OUT:
          ----                                     ----
             STORAGE =           0.0000               STORAGE =           0.0000
       CONSTANT HEAD =           0.0000         CONSTANT HEAD =           0.0000
               WELLS =    12039000.0000                 WELLS =       40130.0000
              DRAINS =     1101083.0000                DRAINS =        3613.6062
       RIVER LEAKAGE =    17520284.0000         RIVER LEAKAGE =       58159.8867
     HEAD DEP BOUNDS =     6755629.5000       HEAD DEP BOUNDS =       22423.8652
            RECHARGE =           0.0000              RECHARGE =           0.0000

           TOTAL OUT =    37415996.0000             TOTAL OUT =      124327.3594

            IN - OUT =        -820.0000              IN - OUT =          -2.7031

 PERCENT DISCREPANCY =          -0.00     PERCENT DISCREPANCY =          -0.00






         TIME SUMMARY AT END OF TIME STEP    3 IN STRESS PERIOD    2
                    SECONDS     MINUTES      HOURS       DAYS        YEARS
                    -----------------------------------------------------------
   TIME STEP LENGTH 8.64000E+06 1.44000E+05  2400.0     100.000     0.27379    
 STRESS PERIOD TIME 2.59200E+07 4.32000E+05  7200.0      300.00     0.82136    
         TOTAL TIME 2.60064E+07 4.33440E+05  7224.0      301.00     0.82409    
1
 
 SOLVING FOR HEAD 
     4 CALLS TO PCG ROUTINE FOR TIME STEP   4 IN STRESS PERIOD    2
    19 TOTAL ITERATIONS

 MAXIMUM HEAD CHANGE FOR EACH ITERATION (1 INDICATES THE FIRST INNER ITERATION):

    HEAD CHANGE    HEAD CHANGE    HEAD CHANGE    HEAD CHANGE    HEAD CHANGE 
   LAYER,ROW,COL  LAYER,ROW,COL  LAYER,ROW,COL  LAYER,ROW,COL  LAYER,ROW,COL
 ---------------------------------------------------------------------------
  1 -0.6219E-01  0 -0.6788E-02  0 -0.1266E-02  0  0.5193E-03  0  0.1374E-03
   (  1, 27, 23)  (  3, 23, 25)  (  3, 22, 12)  (  3, 27, 23)  (  3, 29, 20)
  0 -0.9063E-04  0  0.2647E-04  0 -0.1157E-04  0 -0.2819E-05  0  0.9780E-06
   (  3,  1, 35)  (  3,  1, 35)  (  3,  1, 35)  (  3,  2, 28)  (  3,  1, 28)
  1 -0.1915E-03  0  0.1856E-04  0  0.3314E-05  0 -0.1107E-05  0 -0.2908E-06
   (  1, 27, 23)  (  2, 27, 23)  (  2, 27, 23)  (  2, 27, 22)  (  3,  2, 29)
  0  0.9830E-07  1 -0.2506E-06  0 -0.4801E-07  1  0.1530E-07
   (  3,  2, 29)  (  1, 27, 23)  (  1, 27, 23)  (  2, 27, 23)

 MAXIMUM RESIDUAL FOR EACH ITERATION (1 INDICATES THE FIRST INNER ITERATION):

    RESIDUAL       RESIDUAL       RESIDUAL       RESIDUAL       RESIDUAL    
   LAYER,ROW,COL  LAYER,ROW,COL  LAYER,ROW,COL  LAYER,ROW,COL  LAYER,ROW,COL
 ---------------------------------------------------------------------------
  1  -28.66      0  -11.98      0   1.815      0 -0.4625      0  0.2750    
   (  1, 27, 23)  (  1, 27, 23)  (  2, 28, 24)  (  2, 25, 23)  (  1, 27, 23)
  0  0.8462E-01  0  0.3136E-01  0  0.8784E-02  0 -0.2875E-02  0  0.9763E-03
   (  1, 27, 23)  (  3, 30, 39)  (  3, 27, 39)  (  3,  2, 29)  (  3,  2, 30)
  1  0.2845      0 -0.6177E-01  0  0.1995E-01  0  0.4653E-02  0 -0.1745E-02
   (  1, 27, 23)  (  2, 27, 23)  (  1, 26, 24)  (  1, 26, 24)  (  2, 26, 24)
  0  0.5579E-03  1  0.1091E-02  0 -0.2981E-03  1  0.1313E-03
   (  2, 25, 24)  (  1, 27, 23)  (  2, 27, 23)  (  1, 27, 23)



 HEAD/DRAWDOWN PRINTOUT FLAG = 1     TOTAL BUDGET PRINTOUT FLAG = 1
 CELL-BY-CELL FLOW TERM FLAG = 1

 OUTPUT FLAGS FOR EACH LAYER:
          HEAD    DRAWDOWN  HEAD  DRAWDOWN
 LAYER  PRINTOUT  PRINTOUT  SAVE    SAVE
 -----------------------------------------
    1       0         0       1       1
    2       0         0       1       1
    3       0         0       1       1
 UBUDSV SAVING "         STORAGE" ON UNIT 50 AT TIME STEP  4, STRESS PERIOD    2
 UBUDSV SAVING "   CONSTANT HEAD" ON UNIT 50 AT TIME STEP  4, STRESS PERIOD    2
 UBUDSV SAVING "FLOW RIGHT FACE " ON UNIT 50 AT TIME STEP  4, STRESS PERIOD    2
 UBUDSV SAVING "FLOW FRONT FACE " ON UNIT 50 AT TIME STEP  4, STRESS PERIOD    2
 UBUDSV SAVING "FLOW LOWER FACE " ON UNIT 50 AT TIME STEP  4, STRESS PERIOD    2
 UBUDSV SAVING "           WELLS" ON UNIT 50 AT TIME STEP  4, STRESS PERIOD    2
 UBUDSV SAVING "          DRAINS" ON UNIT 50 AT TIME STEP  4, STRESS PERIOD    2
 UBUDSV SAVING "   RIVER LEAKAGE" ON UNIT 50 AT TIME STEP  4, STRESS PERIOD    2
 UBUDSV SAVING " HEAD DEP BOUNDS" ON UNIT 50 AT TIME STEP  4, STRESS PERIOD    2
 UBUDSV SAVING "        RECHARGE" ON UNIT 50 AT TIME STEP  4, STRESS PERIOD    2

 SAVING SATURATED THICKNESS AND FLOW TERMS ON UNIT  333 FOR MT3DMS
 BY THE LINK-MT3DMS PACKAGE V7 AT TIME STEP    4, STRESS PERIOD    2


 HEAD WILL BE SAVED ON UNIT   51 AT END OF TIME STEP    4, STRESS PERIOD    2

 DRAWDOWN WILL BE SAVED ON UNIT   52 AT END OF TIME STEP    4, STRESS PERIOD    2
1
  VOLUMETRIC BUDGET FOR ENTIRE MODEL AT END OF TIME STEP    4, STRESS PERIOD   2
  ------------------------------------------------------------------------------

     CUMULATIVE VOLUMES      L**3       RATES FOR THIS TIME STEP      L**3/T
     ------------------                 ------------------------

           IN:                                      IN:
           ---                                      ---
             STORAGE =    15945700.0000               STORAGE =       39684.7344
       CONSTANT HEAD =           0.0000         CONSTANT HEAD =           0.0000
               WELLS =           0.0000                 WELLS =           0.0000
              DRAINS =           0.0000                DRAINS =           0.0000
       RIVER LEAKAGE =           0.0000         RIVER LEAKAGE =           0.0000
     HEAD DEP BOUNDS =           0.0000       HEAD DEP BOUNDS =           0.0000
            RECHARGE =    33889100.0000              RECHARGE =       84511.4688

            TOTAL IN =    49834800.0000              TOTAL IN =      124196.2031

          OUT:                                     OUT:
          ----                                     ----
             STORAGE =           0.0000               STORAGE =           0.0000
       CONSTANT HEAD =           0.0000         CONSTANT HEAD =           0.0000
               WELLS =    16052000.0000                 WELLS =       40130.0000
              DRAINS =     1458998.3750                DRAINS =        3579.1536
       RIVER LEAKAGE =    23329610.0000         RIVER LEAKAGE =       58093.2539
     HEAD DEP BOUNDS =     8995288.0000       HEAD DEP BOUNDS =       22396.5801
            RECHARGE =           0.0000              RECHARGE =           0.0000

           TOTAL OUT =    49835896.0000             TOTAL OUT =      124198.9922

            IN - OUT =       -1096.0000              IN - OUT =          -2.7891

 PERCENT DISCREPANCY =          -0.00     PERCENT DISCREPANCY =          -0.00






         TIME SUMMARY AT END OF TIME STEP    4 IN STRESS PERIOD    2
                    SECONDS     MINUTES      HOURS       DAYS        YEARS
                    -----------------------------------------------------------
   TIME STEP LENGTH 8.64000E+06 1.44000E+05  2400.0     100.000     0.27379    
 STRESS PERIOD TIME 3.45600E+07 5.76000E+05  9600.0      400.00      1.0951    
         TOTAL TIME 3.46464E+07 5.77440E+05  9624.0      401.00      1.0979    
1
 
 SOLVING FOR HEAD 
     3 CALLS TO PCG ROUTINE FOR TIME STEP   5 IN STRESS PERIOD    2
    17 TOTAL ITERATIONS

 MAXIMUM HEAD CHANGE FOR EACH ITERATION (1 INDICATES THE FIRST INNER ITERATION):

    HEAD CHANGE    HEAD CHANGE    HEAD CHANGE    HEAD CHANGE    HEAD CHANGE 
   LAYER,ROW,COL  LAYER,ROW,COL  LAYER,ROW,COL  LAYER,ROW,COL  LAYER,ROW,COL
 ---------------------------------------------------------------------------
  1 -0.4583E-01  0 -0.5250E-02  0 -0.8963E-03  0 -0.4647E-03  0  0.1549E-03
   (  1, 27, 23)  (  3, 23, 24)  (  3, 22, 12)  (  3,  1, 33)  (  3,  1, 33)
  0 -0.8569E-04  0  0.1776E-04  0 -0.7901E-05  0 -0.2691E-05  0  0.7708E-06
   (  3,  1, 35)  (  3,  1, 35)  (  3,  1, 36)  (  3,  1, 27)  (  3,  1, 28)
  1 -0.1483E-03  0  0.1405E-04  0  0.2603E-05  0 -0.8467E-06  0 -0.2288E-06
   (  1, 27, 23)  (  2, 27, 23)  (  2, 27, 23)  (  2, 27, 22)  (  3,  2, 29)
  0 -0.8057E-07  1 -0.1889E-06
   (  3,  2, 35)  (  1, 27, 23)

 MAXIMUM RESIDUAL FOR EACH ITERATION (1 INDICATES THE FIRST INNER ITERATION):

    RESIDUAL       RESIDUAL       RESIDUAL       RESIDUAL       RESIDUAL    
   LAYER,ROW,COL  LAYER,ROW,COL  LAYER,ROW,COL  LAYER,ROW,COL  LAYER,ROW,COL
 ---------------------------------------------------------------------------
  1  -15.33      0  -6.156      0   1.016      0 -0.3664      0 -0.1507    
   (  1, 27, 23)  (  1, 27, 23)  (  1, 22, 40)  (  3,  1, 31)  (  3, 30, 39)
  0  0.5951E-01  0  0.2248E-01  0  0.7040E-02  0 -0.2351E-02  0  0.7680E-03
   (  1,  2, 40)  (  3, 30, 39)  (  3, 27, 39)  (  3,  2, 29)  (  3, 31, 38)
  1  0.2265      0 -0.4840E-01  0  0.1549E-01  0  0.3581E-02  0 -0.1390E-02
   (  1, 27, 23)  (  2, 27, 23)  (  1, 26, 24)  (  1, 26, 24)  (  2, 26, 24)
  0  0.4244E-03  1  0.8310E-03
   (  2, 25, 24)  (  1, 27, 23)



 HEAD/DRAWDOWN PRINTOUT FLAG = 1     TOTAL BUDGET PRINTOUT FLAG = 1
 CELL-BY-CELL FLOW TERM FLAG = 1

 OUTPUT FLAGS FOR EACH LAYER:
          HEAD    DRAWDOWN  HEAD  DRAWDOWN
 LAYER  PRINTOUT  PRINTOUT  SAVE    SAVE
 -----------------------------------------
    1       0         0       1       1
    2       0         0       1       1
    3       0         0       1       1
 UBUDSV SAVING "         STORAGE" ON UNIT 50 AT TIME STEP  5, STRESS PERIOD    2
 UBUDSV SAVING "   CONSTANT HEAD" ON UNIT 50 AT TIME STEP  5, STRESS PERIOD    2
 UBUDSV SAVING "FLOW RIGHT FACE " ON UNIT 50 AT TIME STEP  5, STRESS PERIOD    2
 UBUDSV SAVING "FLOW FRONT FACE " ON UNIT 50 AT TIME STEP  5, STRESS PERIOD    2
 UBUDSV SAVING "FLOW LOWER FACE " ON UNIT 50 AT TIME STEP  5, STRESS PERIOD    2
 UBUDSV SAVING "           WELLS" ON UNIT 50 AT TIME STEP  5, STRESS PERIOD    2
 UBUDSV SAVING "          DRAINS" ON UNIT 50 AT TIME STEP  5, STRESS PERIOD    2
 UBUDSV SAVING "   RIVER LEAKAGE" ON UNIT 50 AT TIME STEP  5, STRESS PERIOD    2
 UBUDSV SAVING " HEAD DEP BOUNDS" ON UNIT 50 AT TIME STEP  5, STRESS PERIOD    2
 UBUDSV SAVING "        RECHARGE" ON UNIT 50 AT TIME STEP  5, STRESS PERIOD    2

 SAVING SATURATED THICKNESS AND FLOW TERMS ON UNIT  333 FOR MT3DMS
 BY THE LINK-MT3DMS PACKAGE V7 AT TIME STEP    5, STRESS PERIOD    2


 HEAD WILL BE SAVED ON UNIT   51 AT END OF TIME STEP    5, STRESS PERIOD    2

 DRAWDOWN WILL BE SAVED ON UNIT   52 AT END OF TIME STEP    5, STRESS PERIOD    2
1
  VOLUMETRIC BUDGET FOR ENTIRE MODEL AT END OF TIME STEP    5, STRESS PERIOD   2
  ------------------------------------------------------------------------------

     CUMULATIVE VOLUMES      L**3       RATES FOR THIS TIME STEP      L**3/T
     ------------------                 ------------------------

           IN:                                      IN:
           ---                                      ---
             STORAGE =    19900126.0000               STORAGE =       39544.2656
       CONSTANT HEAD =           0.0000         CONSTANT HEAD =           0.0000
               WELLS =           0.0000                 WELLS =           0.0000
              DRAINS =           0.0000                DRAINS =           0.0000
       RIVER LEAKAGE =           0.0000         RIVER LEAKAGE =           0.0000
     HEAD DEP BOUNDS =           0.0000       HEAD DEP BOUNDS =           0.0000
            RECHARGE =    42340248.0000              RECHARGE =       84511.4688

            TOTAL IN =    62240376.0000              TOTAL IN =      124055.7344

          OUT:                                     OUT:
          ----                                     ----
             STORAGE =           0.0000               STORAGE =           0.0000
       CONSTANT HEAD =           0.0000         CONSTANT HEAD =           0.0000
               WELLS =    20065000.0000                 WELLS =       40130.0000
              DRAINS =     1813871.0000                DRAINS =        3548.7263
       RIVER LEAKAGE =    29131080.0000         RIVER LEAKAGE =       58014.7070
     HEAD DEP BOUNDS =    11231786.0000       HEAD DEP BOUNDS =       22364.9746
            RECHARGE =           0.0000              RECHARGE =           0.0000

           TOTAL OUT =    62241736.0000             TOTAL OUT =      124058.4062

            IN - OUT =       -1360.0000              IN - OUT =          -2.6719

 PERCENT DISCREPANCY =          -0.00     PERCENT DISCREPANCY =          -0.00






         TIME SUMMARY AT END OF TIME STEP    5 IN STRESS PERIOD    2
                    SECONDS     MINUTES      HOURS       DAYS        YEARS
                    -----------------------------------------------------------
   TIME STEP LENGTH 8.64000E+06 1.44000E+05  2400.0     100.000     0.27379    
 STRESS PERIOD TIME 4.32000E+07 7.20000E+05  12000.      500.00      1.3689    
         TOTAL TIME 4.32864E+07 7.21440E+05  12024.      501.00      1.3717    
1
 
 SOLVING FOR HEAD 
     3 CALLS TO PCG ROUTINE FOR TIME STEP   6 IN STRESS PERIOD    2
    17 TOTAL ITERATIONS

 MAXIMUM HEAD CHANGE FOR EACH ITERATION (1 INDICATES THE FIRST INNER ITERATION):

    HEAD CHANGE    HEAD CHANGE    HEAD CHANGE    HEAD CHANGE    HEAD CHANGE 
   LAYER,ROW,COL  LAYER,ROW,COL  LAYER,ROW,COL  LAYER,ROW,COL  LAYER,ROW,COL
 ---------------------------------------------------------------------------
  1 -0.3712E-01  0 -0.4335E-02  0 -0.7156E-03  0 -0.5304E-03  0  0.1646E-03
   (  1, 27, 23)  (  3, 22, 23)  (  3, 40, 18)  (  3,  1, 33)  (  3,  1, 33)
  0 -0.7182E-04  0 -0.1531E-04  0  0.6977E-05  0 -0.2268E-05  0 -0.6047E-06
   (  3,  1, 36)  (  3,  1, 23)  (  3,  1, 25)  (  3,  1, 27)  (  3,  1, 19)
  1 -0.1232E-03  0  0.1146E-04  0 -0.2185E-05  0 -0.6877E-06  0  0.2051E-06
   (  1, 27, 23)  (  2, 27, 23)  (  3, 29, 25)  (  2, 27, 22)  (  3,  2, 35)
  0 -0.7281E-07  1 -0.1584E-06
   (  3,  2, 35)  (  2, 27, 23)

 MAXIMUM RESIDUAL FOR EACH ITERATION (1 INDICATES THE FIRST INNER ITERATION):

    RESIDUAL       RESIDUAL       RESIDUAL       RESIDUAL       RESIDUAL    
   LAYER,ROW,COL  LAYER,ROW,COL  LAYER,ROW,COL  LAYER,ROW,COL  LAYER,ROW,COL
 ---------------------------------------------------------------------------
  1  -9.971      0  -3.876      0  0.9552      0 -0.4168      0  0.1298    
   (  1, 26, 23)  (  1, 27, 23)  (  1, 21, 40)  (  3,  1, 31)  (  3,  1, 33)
  0  0.4873E-01  0 -0.1584E-01  0  0.6001E-02  0 -0.1857E-02  0  0.6920E-03
   (  1,  2, 40)  (  3,  2, 28)  (  3,  2, 29)  (  3,  2, 29)  (  3, 39, 21)
  1  0.1930      0 -0.4065E-01  0  0.1289E-01  0  0.2986E-02  0 -0.1200E-02
   (  1, 27, 23)  (  2, 27, 23)  (  1, 26, 24)  (  1, 26, 24)  (  2, 26, 24)
  0  0.3487E-03  1  0.6785E-03
   (  2, 25, 24)  (  1, 27, 23)



 HEAD/DRAWDOWN PRINTOUT FLAG = 1     TOTAL BUDGET PRINTOUT FLAG = 1
 CELL-BY-CELL FLOW TERM FLAG = 1

 OUTPUT FLAGS FOR EACH LAYER:
          HEAD    DRAWDOWN  HEAD  DRAWDOWN
 LAYER  PRINTOUT  PRINTOUT  SAVE    SAVE
 -----------------------------------------
    1       0         0       1       1
    2       0         0       1       1
    3       0         0       1       1
 UBUDSV SAVING "         STORAGE" ON UNIT 50 AT TIME STEP  6, STRESS PERIOD    2
 UBUDSV SAVING "   CONSTANT HEAD" ON UNIT 50 AT TIME STEP  6, STRESS PERIOD    2
 UBUDSV SAVING "FLOW RIGHT FACE " ON UNIT 50 AT TIME STEP  6, STRESS PERIOD    2
 UBUDSV SAVING "FLOW FRONT FACE " ON UNIT 50 AT TIME STEP  6, STRESS PERIOD    2
 UBUDSV SAVING "FLOW LOWER FACE " ON UNIT 50 AT TIME STEP  6, STRESS PERIOD    2
 UBUDSV SAVING "           WELLS" ON UNIT 50 AT TIME STEP  6, STRESS PERIOD    2
 UBUDSV SAVING "          DRAINS" ON UNIT 50 AT TIME STEP  6, STRESS PERIOD    2
 UBUDSV SAVING "   RIVER LEAKAGE" ON UNIT 50 AT TIME STEP  6, STRESS PERIOD    2
 UBUDSV SAVING " HEAD DEP BOUNDS" ON UNIT 50 AT TIME STEP  6, STRESS PERIOD    2
 UBUDSV SAVING "        RECHARGE" ON UNIT 50 AT TIME STEP  6, STRESS PERIOD    2

 SAVING SATURATED THICKNESS AND FLOW TERMS ON UNIT  333 FOR MT3DMS
 BY THE LINK-MT3DMS PACKAGE V7 AT TIME STEP    6, STRESS PERIOD    2


 HEAD WILL BE SAVED ON UNIT   51 AT END OF TIME STEP    6, STRESS PERIOD    2

 DRAWDOWN WILL BE SAVED ON UNIT   52 AT END OF TIME STEP    6, STRESS PERIOD    2
1
  VOLUMETRIC BUDGET FOR ENTIRE MODEL AT END OF TIME STEP    6, STRESS PERIOD   2
  ------------------------------------------------------------------------------

     CUMULATIVE VOLUMES      L**3       RATES FOR THIS TIME STEP      L**3/T
     ------------------                 ------------------------

           IN:                                      IN:
           ---                                      ---
             STORAGE =    23839458.0000               STORAGE =       39393.3281
       CONSTANT HEAD =           0.0000         CONSTANT HEAD =           0.0000
               WELLS =           0.0000                 WELLS =           0.0000
              DRAINS =           0.0000                DRAINS =           0.0000
       RIVER LEAKAGE =           0.0000         RIVER LEAKAGE =           0.0000
     HEAD DEP BOUNDS =           0.0000       HEAD DEP BOUNDS =           0.0000
            RECHARGE =    50791396.0000              RECHARGE =       84511.4688

            TOTAL IN =    74630856.0000              TOTAL IN =      123904.7969

          OUT:                                     OUT:
          ----                                     ----
             STORAGE =           0.0000               STORAGE =           0.0000
       CONSTANT HEAD =           0.0000         CONSTANT HEAD =           0.0000
               WELLS =    24078000.0000                 WELLS =       40130.0000
              DRAINS =     2165981.2500                DRAINS =        3521.1030
       RIVER LEAKAGE =    34923736.0000         RIVER LEAKAGE =       57926.5391
     HEAD DEP BOUNDS =    13464777.0000       HEAD DEP BOUNDS =       22329.9082
            RECHARGE =           0.0000              RECHARGE =           0.0000

           TOTAL OUT =    74632496.0000             TOTAL OUT =      123907.5469

            IN - OUT =       -1640.0000              IN - OUT =          -2.7500

 PERCENT DISCREPANCY =          -0.00     PERCENT DISCREPANCY =          -0.00






         TIME SUMMARY AT END OF TIME STEP    6 IN STRESS PERIOD    2
                    SECONDS     MINUTES      HOURS       DAYS        YEARS
                    -----------------------------------------------------------
   TIME STEP LENGTH 8.64000E+06 1.44000E+05  2400.0     100.000     0.27379    
 STRESS PERIOD TIME 5.18400E+07 8.64000E+05  14400.      600.00      1.6427    
         TOTAL TIME 5.19264E+07 8.65440E+05  14424.      601.00      1.6454    
1
 
 SOLVING FOR HEAD 
     3 CALLS TO PCG ROUTINE FOR TIME STEP   7 IN STRESS PERIOD    2
    17 TOTAL ITERATIONS

 MAXIMUM HEAD CHANGE FOR EACH ITERATION (1 INDICATES THE FIRST INNER ITERATION):

    HEAD CHANGE    HEAD CHANGE    HEAD CHANGE    HEAD CHANGE    HEAD CHANGE 
   LAYER,ROW,COL  LAYER,ROW,COL  LAYER,ROW,COL  LAYER,ROW,COL  LAYER,ROW,COL
 ---------------------------------------------------------------------------
  1 -0.3171E-01  0 -0.3719E-02  0 -0.6653E-03  0 -0.5556E-03  0  0.1529E-03
   (  1, 27, 23)  (  3, 21, 22)  (  3, 40, 16)  (  3,  1, 33)  (  3,  1, 34)
  0 -0.6215E-04  0 -0.1661E-04  0  0.6541E-05  0 -0.1890E-05  0 -0.6442E-06
   (  3,  1, 36)  (  3,  1, 23)  (  3,  1, 25)  (  3,  1, 27)  (  3,  1, 19)
  1 -0.1069E-03  0  0.9753E-05  0  0.1918E-05  0 -0.5802E-06  0  0.2065E-06
   (  1, 27, 23)  (  2, 27, 23)  (  2, 27, 23)  (  2, 27, 22)  (  3,  2, 35)
  0 -0.6590E-07  1 -0.1376E-06
   (  3,  2, 35)  (  1, 27, 23)

 MAXIMUM RESIDUAL FOR EACH ITERATION (1 INDICATES THE FIRST INNER ITERATION):

    RESIDUAL       RESIDUAL       RESIDUAL       RESIDUAL       RESIDUAL    
   LAYER,ROW,COL  LAYER,ROW,COL  LAYER,ROW,COL  LAYER,ROW,COL  LAYER,ROW,COL
 ---------------------------------------------------------------------------
  1  -7.401      0  -2.796      0  0.9415      0 -0.4152      0  0.1146    
   (  1, 26, 23)  (  1, 27, 23)  (  1, 18, 40)  (  3,  1, 31)  (  3,  1, 33)
  0  0.4313E-01  0 -0.1503E-01  0  0.5261E-02  0  0.1637E-02  0  0.6680E-03
   (  1,  2, 40)  (  3,  2, 28)  (  3,  2, 29)  (  3,  2, 21)  (  3, 39, 21)
  1  0.1713      0 -0.3571E-01  0  0.1122E-01  0  0.2628E-02  0 -0.1084E-02
   (  1, 27, 23)  (  2, 27, 23)  (  1, 26, 24)  (  1, 26, 24)  (  2, 26, 24)
  0  0.3007E-03  1  0.6428E-03
   (  2, 25, 24)  (  1, 27, 23)



 HEAD/DRAWDOWN PRINTOUT FLAG = 1     TOTAL BUDGET PRINTOUT FLAG = 1
 CELL-BY-CELL FLOW TERM FLAG = 1

 OUTPUT FLAGS FOR EACH LAYER:
          HEAD    DRAWDOWN  HEAD  DRAWDOWN
 LAYER  PRINTOUT  PRINTOUT  SAVE    SAVE
 -----------------------------------------
    1       0         0       1       1
    2       0         0       1       1
    3       0         0       1       1
 UBUDSV SAVING "         STORAGE" ON UNIT 50 AT TIME STEP  7, STRESS PERIOD    2
 UBUDSV SAVING "   CONSTANT HEAD" ON UNIT 50 AT TIME STEP  7, STRESS PERIOD    2
 UBUDSV SAVING "FLOW RIGHT FACE " ON UNIT 50 AT TIME STEP  7, STRESS PERIOD    2
 UBUDSV SAVING "FLOW FRONT FACE " ON UNIT 50 AT TIME STEP  7, STRESS PERIOD    2
 UBUDSV SAVING "FLOW LOWER FACE " ON UNIT 50 AT TIME STEP  7, STRESS PERIOD    2
 UBUDSV SAVING "           WELLS" ON UNIT 50 AT TIME STEP  7, STRESS PERIOD    2
 UBUDSV SAVING "          DRAINS" ON UNIT 50 AT TIME STEP  7, STRESS PERIOD    2
 UBUDSV SAVING "   RIVER LEAKAGE" ON UNIT 50 AT TIME STEP  7, STRESS PERIOD    2
 UBUDSV SAVING " HEAD DEP BOUNDS" ON UNIT 50 AT TIME STEP  7, STRESS PERIOD    2
 UBUDSV SAVING "        RECHARGE" ON UNIT 50 AT TIME STEP  7, STRESS PERIOD    2

 SAVING SATURATED THICKNESS AND FLOW TERMS ON UNIT  333 FOR MT3DMS
 BY THE LINK-MT3DMS PACKAGE V7 AT TIME STEP    7, STRESS PERIOD    2


 HEAD WILL BE SAVED ON UNIT   51 AT END OF TIME STEP    7, STRESS PERIOD    2

 DRAWDOWN WILL BE SAVED ON UNIT   52 AT END OF TIME STEP    7, STRESS PERIOD    2
1
  VOLUMETRIC BUDGET FOR ENTIRE MODEL AT END OF TIME STEP    7, STRESS PERIOD   2
  ------------------------------------------------------------------------------

     CUMULATIVE VOLUMES      L**3       RATES FOR THIS TIME STEP      L**3/T
     ------------------                 ------------------------

           IN:                                      IN:
           ---                                      ---
             STORAGE =    27762868.0000               STORAGE =       39234.1055
       CONSTANT HEAD =           0.0000         CONSTANT HEAD =           0.0000
               WELLS =           0.0000                 WELLS =           0.0000
              DRAINS =           0.0000                DRAINS =           0.0000
       RIVER LEAKAGE =           0.0000         RIVER LEAKAGE =           0.0000
     HEAD DEP BOUNDS =           0.0000       HEAD DEP BOUNDS =           0.0000
            RECHARGE =    59242544.0000              RECHARGE =       84511.4688

            TOTAL IN =    87005408.0000              TOTAL IN =      123745.5781

          OUT:                                     OUT:
          ----                                     ----
             STORAGE =           0.0000               STORAGE =           0.0000
       CONSTANT HEAD =           0.0000         CONSTANT HEAD =           0.0000
               WELLS =    28091000.0000                 WELLS =       40130.0000
              DRAINS =     2515534.7500                DRAINS =        3495.5356
       RIVER LEAKAGE =    40706812.0000         RIVER LEAKAGE =       57830.7773
     HEAD DEP BOUNDS =    15693990.0000       HEAD DEP BOUNDS =       22292.1270
            RECHARGE =           0.0000              RECHARGE =           0.0000

           TOTAL OUT =    87007336.0000             TOTAL OUT =      123748.4453

            IN - OUT =       -1928.0000              IN - OUT =          -2.8672

 PERCENT DISCREPANCY =          -0.00     PERCENT DISCREPANCY =          -0.00






         TIME SUMMARY AT END OF TIME STEP    7 IN STRESS PERIOD    2
                    SECONDS     MINUTES      HOURS       DAYS        YEARS
                    -----------------------------------------------------------
   TIME STEP LENGTH 8.64000E+06 1.44000E+05  2400.0     100.000     0.27379    
 STRESS PERIOD TIME 6.04800E+07 1.00800E+06  16800.      700.00      1.9165    
         TOTAL TIME 6.05664E+07 1.00944E+06  16824.      701.00      1.9192    
1
 
 SOLVING FOR HEAD 
     3 CALLS TO PCG ROUTINE FOR TIME STEP   8 IN STRESS PERIOD    2
    17 TOTAL ITERATIONS

 MAXIMUM HEAD CHANGE FOR EACH ITERATION (1 INDICATES THE FIRST INNER ITERATION):

    HEAD CHANGE    HEAD CHANGE    HEAD CHANGE    HEAD CHANGE    HEAD CHANGE 
   LAYER,ROW,COL  LAYER,ROW,COL  LAYER,ROW,COL  LAYER,ROW,COL  LAYER,ROW,COL
 ---------------------------------------------------------------------------
  1 -0.2800E-01  0 -0.3281E-02  0 -0.6265E-03  0 -0.5590E-03  0  0.1385E-03
   (  1, 27, 23)  (  3, 20, 22)  (  3, 40, 15)  (  3,  1, 33)  (  3,  1, 34)
  0 -0.5674E-04  0 -0.1693E-04  0  0.6060E-05  0 -0.1637E-05  0 -0.6343E-06
   (  3,  1, 36)  (  3,  1, 24)  (  3,  1, 25)  (  3,  1, 27)  (  3,  1, 20)
  1 -0.9523E-04  0  0.8522E-05  0  0.1737E-05  0 -0.5026E-06  0  0.2052E-06
   (  1, 27, 23)  (  2, 27, 23)  (  2, 27, 23)  (  2, 27, 22)  (  3,  2, 35)
  0 -0.5962E-07  1 -0.8759E-07
   (  2, 27, 23)  (  2, 27, 23)

 MAXIMUM RESIDUAL FOR EACH ITERATION (1 INDICATES THE FIRST INNER ITERATION):

    RESIDUAL       RESIDUAL       RESIDUAL       RESIDUAL       RESIDUAL    
   LAYER,ROW,COL  LAYER,ROW,COL  LAYER,ROW,COL  LAYER,ROW,COL  LAYER,ROW,COL
 ---------------------------------------------------------------------------
  1  -5.871      0  -2.202      0  0.9470      0 -0.3978      0  0.1161    
   (  1, 26, 23)  (  1, 27, 23)  (  1, 17, 40)  (  3,  1, 31)  (  2, 13, 32)
  0  0.4015E-01  0 -0.1416E-01  0  0.4757E-02  0  0.1639E-02  0  0.6467E-03
   (  1,  2, 40)  (  3,  2, 28)  (  3,  2, 29)  (  3,  2, 21)  (  3, 39, 21)
  1  0.1561      0 -0.3230E-01  0  0.1005E-01  0  0.2386E-02  0 -0.1002E-02
   (  1, 27, 23)  (  2, 27, 23)  (  1, 26, 24)  (  1, 26, 24)  (  2, 26, 24)
  0  0.2672E-03  1  0.4608E-03
   (  2, 25, 24)  (  1, 27, 23)



 HEAD/DRAWDOWN PRINTOUT FLAG = 1     TOTAL BUDGET PRINTOUT FLAG = 1
 CELL-BY-CELL FLOW TERM FLAG = 1

 OUTPUT FLAGS FOR EACH LAYER:
          HEAD    DRAWDOWN  HEAD  DRAWDOWN
 LAYER  PRINTOUT  PRINTOUT  SAVE    SAVE
 -----------------------------------------
    1       0         0       1       1
    2       0         0       1       1
    3       0         0       1       1
 UBUDSV SAVING "         STORAGE" ON UNIT 50 AT TIME STEP  8, STRESS PERIOD    2
 UBUDSV SAVING "   CONSTANT HEAD" ON UNIT 50 AT TIME STEP  8, STRESS PERIOD    2
 UBUDSV SAVING "FLOW RIGHT FACE " ON UNIT 50 AT TIME STEP  8, STRESS PERIOD    2
[...]
 UBUDSV SAVING "           WELLS" ON UNIT 50 AT TIME STEP297, STRESS PERIOD    2
 UBUDSV SAVING "          DRAINS" ON UNIT 50 AT TIME STEP297, STRESS PERIOD    2
 UBUDSV SAVING "   RIVER LEAKAGE" ON UNIT 50 AT TIME STEP297, STRESS PERIOD    2
 UBUDSV SAVING " HEAD DEP BOUNDS" ON UNIT 50 AT TIME STEP297, STRESS PERIOD    2
 UBUDSV SAVING "        RECHARGE" ON UNIT 50 AT TIME STEP297, STRESS PERIOD    2

 SAVING SATURATED THICKNESS AND FLOW TERMS ON UNIT  333 FOR MT3DMS
 BY THE LINK-MT3DMS PACKAGE V7 AT TIME STEP  297, STRESS PERIOD    2


 HEAD WILL BE SAVED ON UNIT   51 AT END OF TIME STEP  297, STRESS PERIOD    2

 DRAWDOWN WILL BE SAVED ON UNIT   52 AT END OF TIME STEP  297, STRESS PERIOD    2
1
  VOLUMETRIC BUDGET FOR ENTIRE MODEL AT END OF TIME STEP  297, STRESS PERIOD   2
  ------------------------------------------------------------------------------

     CUMULATIVE VOLUMES      L**3       RATES FOR THIS TIME STEP      L**3/T
     ------------------                 ------------------------

           IN:                                      IN:
           ---                                      ---
             STORAGE =   707455936.0000               STORAGE =       13567.1455
       CONSTANT HEAD =           0.0000         CONSTANT HEAD =           0.0000
               WELLS =           0.0000                 WELLS =           0.0000
              DRAINS =           0.0000                DRAINS =           0.0000
       RIVER LEAKAGE =           0.0000         RIVER LEAKAGE =           0.0000
     HEAD DEP BOUNDS =           0.0000       HEAD DEP BOUNDS =           0.0000
            RECHARGE =  2510077696.0000              RECHARGE =       84511.4688

            TOTAL IN =  3217533696.0000              TOTAL IN =       98078.6172

          OUT:                                     OUT:
          ----                                     ----
             STORAGE =           0.0000               STORAGE =           0.0000
       CONSTANT HEAD =           0.0000         CONSTANT HEAD =           0.0000
               WELLS =  1191860864.0000                 WELLS =       40130.0000
              DRAINS =    59087268.0000                DRAINS =         987.9760
       RIVER LEAKAGE =  1419544192.0000         RIVER LEAKAGE =       41117.5000
     HEAD DEP BOUNDS =   547118080.0000       HEAD DEP BOUNDS =       15845.8447
            RECHARGE =           0.0000              RECHARGE =           0.0000

           TOTAL OUT =  3217610240.0000             TOTAL OUT =       98081.3203

            IN - OUT =      -76544.0000              IN - OUT =          -2.7031

 PERCENT DISCREPANCY =          -0.00     PERCENT DISCREPANCY =          -0.00






         TIME SUMMARY AT END OF TIME STEP  297 IN STRESS PERIOD    2
                    SECONDS     MINUTES      HOURS       DAYS        YEARS
                    -----------------------------------------------------------
   TIME STEP LENGTH 8.64000E+06 1.44000E+05  2400.0     100.000     0.27379    
 STRESS PERIOD TIME 2.56608E+09 4.27680E+07 7.12800E+05  29700.      81.314    
         TOTAL TIME 2.56617E+09 4.27694E+07 7.12824E+05  29701.      81.317    
1
 
 SOLVING FOR HEAD 
     3 CALLS TO PCG ROUTINE FOR TIME STEP 298 IN STRESS PERIOD    2
    14 TOTAL ITERATIONS

 MAXIMUM HEAD CHANGE FOR EACH ITERATION (1 INDICATES THE FIRST INNER ITERATION):

    HEAD CHANGE    HEAD CHANGE    HEAD CHANGE    HEAD CHANGE    HEAD CHANGE 
   LAYER,ROW,COL  LAYER,ROW,COL  LAYER,ROW,COL  LAYER,ROW,COL  LAYER,ROW,COL
 ---------------------------------------------------------------------------
  1 -0.4345E-02  0 -0.6786E-03  0  0.2555E-03  0 -0.1274E-03  0 -0.2866E-04
   (  1, 40,  2)  (  3,  1, 28)  (  3,  1, 31)  (  3,  1, 34)  (  3,  2, 21)
  0 -0.1434E-04  0 -0.4752E-05  0  0.1328E-05  0  0.4559E-06  1 -0.1165E-04
   (  3,  1, 36)  (  3,  1, 24)  (  3,  1, 26)  (  3,  1, 19)  (  1, 27, 23)
  0 -0.9335E-06  0  0.2629E-06  0 -0.1031E-06  1  0.4344E-07
   (  1, 23, 13)  (  2, 27, 23)  (  3,  1, 28)  (  3,  1, 28)

 MAXIMUM RESIDUAL FOR EACH ITERATION (1 INDICATES THE FIRST INNER ITERATION):

    RESIDUAL       RESIDUAL       RESIDUAL       RESIDUAL       RESIDUAL    
   LAYER,ROW,COL  LAYER,ROW,COL  LAYER,ROW,COL  LAYER,ROW,COL  LAYER,ROW,COL
 ---------------------------------------------------------------------------
  1  0.8934      0  0.7717      0  0.2441      0 -0.8727E-01  0 -0.2885E-01
   (  2,  1, 33)  (  1,  2, 34)  (  1,  7, 40)  (  3,  1, 31)  (  3,  1, 17)
  0  0.1105E-01  0 -0.3492E-02  0 -0.1167E-02  0  0.4326E-03  1  0.2058E-01
   (  3,  1, 22)  (  3,  1, 24)  (  3,  2, 20)  (  3,  2,  1)  (  1, 27, 23)
  0 -0.4601E-02  0  0.1385E-02  0  0.3807E-03  1  0.1931E-03
   (  2, 27, 23)  (  1, 26, 24)  (  2, 26, 23)  (  1, 26, 24)



 HEAD/DRAWDOWN PRINTOUT FLAG = 1     TOTAL BUDGET PRINTOUT FLAG = 1
 CELL-BY-CELL FLOW TERM FLAG = 1

 OUTPUT FLAGS FOR EACH LAYER:
          HEAD    DRAWDOWN  HEAD  DRAWDOWN
 LAYER  PRINTOUT  PRINTOUT  SAVE    SAVE
 -----------------------------------------
    1       0         0       1       1
    2       0         0       1       1
    3       0         0       1       1
 UBUDSV SAVING "         STORAGE" ON UNIT 50 AT TIME STEP298, STRESS PERIOD    2
 UBUDSV SAVING "   CONSTANT HEAD" ON UNIT 50 AT TIME STEP298, STRESS PERIOD    2
 UBUDSV SAVING "FLOW RIGHT FACE " ON UNIT 50 AT TIME STEP298, STRESS PERIOD    2
 UBUDSV SAVING "FLOW FRONT FACE " ON UNIT 50 AT TIME STEP298, STRESS PERIOD    2
 UBUDSV SAVING "FLOW LOWER FACE " ON UNIT 50 AT TIME STEP298, STRESS PERIOD    2
 UBUDSV SAVING "           WELLS" ON UNIT 50 AT TIME STEP298, STRESS PERIOD    2
 UBUDSV SAVING "          DRAINS" ON UNIT 50 AT TIME STEP298, STRESS PERIOD    2
 UBUDSV SAVING "   RIVER LEAKAGE" ON UNIT 50 AT TIME STEP298, STRESS PERIOD    2
 UBUDSV SAVING " HEAD DEP BOUNDS" ON UNIT 50 AT TIME STEP298, STRESS PERIOD    2
 UBUDSV SAVING "        RECHARGE" ON UNIT 50 AT TIME STEP298, STRESS PERIOD    2

 SAVING SATURATED THICKNESS AND FLOW TERMS ON UNIT  333 FOR MT3DMS
 BY THE LINK-MT3DMS PACKAGE V7 AT TIME STEP  298, STRESS PERIOD    2


 HEAD WILL BE SAVED ON UNIT   51 AT END OF TIME STEP  298, STRESS PERIOD    2

 DRAWDOWN WILL BE SAVED ON UNIT   52 AT END OF TIME STEP  298, STRESS PERIOD    2
1
  VOLUMETRIC BUDGET FOR ENTIRE MODEL AT END OF TIME STEP  298, STRESS PERIOD   2
  ------------------------------------------------------------------------------

     CUMULATIVE VOLUMES      L**3       RATES FOR THIS TIME STEP      L**3/T
     ------------------                 ------------------------

           IN:                                      IN:
           ---                                      ---
             STORAGE =   708808064.0000               STORAGE =       13521.1328
       CONSTANT HEAD =           0.0000         CONSTANT HEAD =           0.0000
               WELLS =           0.0000                 WELLS =           0.0000
              DRAINS =           0.0000                DRAINS =           0.0000
       RIVER LEAKAGE =           0.0000         RIVER LEAKAGE =           0.0000
     HEAD DEP BOUNDS =           0.0000       HEAD DEP BOUNDS =           0.0000
            RECHARGE =  2518528768.0000              RECHARGE =       84511.4688

            TOTAL IN =  3227336704.0000              TOTAL IN =       98032.6016

          OUT:                                     OUT:
          ----                                     ----
             STORAGE =           0.0000               STORAGE =           0.0000
       CONSTANT HEAD =           0.0000         CONSTANT HEAD =           0.0000
               WELLS =  1195873920.0000                 WELLS =       40130.0000
              DRAINS =    59185612.0000                DRAINS =         983.4433
       RIVER LEAKAGE =  1423652992.0000         RIVER LEAKAGE =       41087.5625
     HEAD DEP BOUNDS =   548701504.0000       HEAD DEP BOUNDS =       15834.2959
            RECHARGE =           0.0000              RECHARGE =           0.0000

           TOTAL OUT =  3227414016.0000             TOTAL OUT =       98035.2969

            IN - OUT =      -77312.0000              IN - OUT =          -2.6953

 PERCENT DISCREPANCY =          -0.00     PERCENT DISCREPANCY =          -0.00






         TIME SUMMARY AT END OF TIME STEP  298 IN STRESS PERIOD    2
                    SECONDS     MINUTES      HOURS       DAYS        YEARS
                    -----------------------------------------------------------
   TIME STEP LENGTH 8.64000E+06 1.44000E+05  2400.0     100.000     0.27379    
 STRESS PERIOD TIME 2.57472E+09 4.29120E+07 7.15200E+05  29800.      81.588    
         TOTAL TIME 2.57481E+09 4.29134E+07 7.15224E+05  29801.      81.591    
1
 
 SOLVING FOR HEAD 
     3 CALLS TO PCG ROUTINE FOR TIME STEP 299 IN STRESS PERIOD    2
    14 TOTAL ITERATIONS

 MAXIMUM HEAD CHANGE FOR EACH ITERATION (1 INDICATES THE FIRST INNER ITERATION):

    HEAD CHANGE    HEAD CHANGE    HEAD CHANGE    HEAD CHANGE    HEAD CHANGE 
   LAYER,ROW,COL  LAYER,ROW,COL  LAYER,ROW,COL  LAYER,ROW,COL  LAYER,ROW,COL
 ---------------------------------------------------------------------------
  1 -0.4331E-02  0 -0.6763E-03  0  0.2546E-03  0 -0.1270E-03  0 -0.2856E-04
   (  1, 40,  1)  (  3,  1, 28)  (  3,  1, 31)  (  3,  1, 34)  (  3,  2, 21)
  0 -0.1427E-04  0 -0.4739E-05  0  0.1323E-05  0  0.4542E-06  1 -0.1160E-04
   (  3,  1, 36)  (  3,  1, 24)  (  3,  1, 26)  (  3,  1, 19)  (  1, 27, 23)
  0 -0.9327E-06  0  0.2626E-06  0 -0.1026E-06  1  0.4292E-07
   (  1, 23, 13)  (  2, 27, 23)  (  3,  1, 28)  (  3,  1, 28)

 MAXIMUM RESIDUAL FOR EACH ITERATION (1 INDICATES THE FIRST INNER ITERATION):

    RESIDUAL       RESIDUAL       RESIDUAL       RESIDUAL       RESIDUAL    
   LAYER,ROW,COL  LAYER,ROW,COL  LAYER,ROW,COL  LAYER,ROW,COL  LAYER,ROW,COL
 ---------------------------------------------------------------------------
  1  0.8893      0  0.7685      0  0.2432      0 -0.8700E-01  0 -0.2874E-01
   (  2,  1, 33)  (  1,  2, 34)  (  1,  7, 40)  (  3,  1, 31)  (  3,  1, 17)
  0  0.1102E-01  0 -0.3481E-02  0 -0.1163E-02  0  0.4314E-03  1  0.2053E-01
   (  3,  1, 22)  (  3,  1, 24)  (  3,  2, 20)  (  3,  2,  1)  (  1, 27, 23)
  0 -0.4594E-02  0  0.1378E-02  0  0.3811E-03  1  0.1864E-03
   (  2, 27, 23)  (  1, 26, 24)  (  2, 26, 23)  (  1, 26, 24)



 HEAD/DRAWDOWN PRINTOUT FLAG = 1     TOTAL BUDGET PRINTOUT FLAG = 1
 CELL-BY-CELL FLOW TERM FLAG = 1

 OUTPUT FLAGS FOR EACH LAYER:
          HEAD    DRAWDOWN  HEAD  DRAWDOWN
 LAYER  PRINTOUT  PRINTOUT  SAVE    SAVE
 -----------------------------------------
    1       0         0       1       1
    2       0         0       1       1
    3       0         0       1       1
 UBUDSV SAVING "         STORAGE" ON UNIT 50 AT TIME STEP299, STRESS PERIOD    2
 UBUDSV SAVING "   CONSTANT HEAD" ON UNIT 50 AT TIME STEP299, STRESS PERIOD    2
 UBUDSV SAVING "FLOW RIGHT FACE " ON UNIT 50 AT TIME STEP299, STRESS PERIOD    2
 UBUDSV SAVING "FLOW FRONT FACE " ON UNIT 50 AT TIME STEP299, STRESS PERIOD    2
 UBUDSV SAVING "FLOW LOWER FACE " ON UNIT 50 AT TIME STEP299, STRESS PERIOD    2
 UBUDSV SAVING "           WELLS" ON UNIT 50 AT TIME STEP299, STRESS PERIOD    2
 UBUDSV SAVING "          DRAINS" ON UNIT 50 AT TIME STEP299, STRESS PERIOD    2
 UBUDSV SAVING "   RIVER LEAKAGE" ON UNIT 50 AT TIME STEP299, STRESS PERIOD    2
 UBUDSV SAVING " HEAD DEP BOUNDS" ON UNIT 50 AT TIME STEP299, STRESS PERIOD    2
 UBUDSV SAVING "        RECHARGE" ON UNIT 50 AT TIME STEP299, STRESS PERIOD    2

 SAVING SATURATED THICKNESS AND FLOW TERMS ON UNIT  333 FOR MT3DMS
 BY THE LINK-MT3DMS PACKAGE V7 AT TIME STEP  299, STRESS PERIOD    2


 HEAD WILL BE SAVED ON UNIT   51 AT END OF TIME STEP  299, STRESS PERIOD    2

 DRAWDOWN WILL BE SAVED ON UNIT   52 AT END OF TIME STEP  299, STRESS PERIOD    2
1
  VOLUMETRIC BUDGET FOR ENTIRE MODEL AT END OF TIME STEP  299, STRESS PERIOD   2
  ------------------------------------------------------------------------------

     CUMULATIVE VOLUMES      L**3       RATES FOR THIS TIME STEP      L**3/T
     ------------------                 ------------------------

           IN:                                      IN:
           ---                                      ---
             STORAGE =   710155584.0000               STORAGE =       13475.3809
       CONSTANT HEAD =           0.0000         CONSTANT HEAD =           0.0000
               WELLS =           0.0000                 WELLS =           0.0000
              DRAINS =           0.0000                DRAINS =           0.0000
       RIVER LEAKAGE =           0.0000         RIVER LEAKAGE =           0.0000
     HEAD DEP BOUNDS =           0.0000       HEAD DEP BOUNDS =           0.0000
            RECHARGE =  2526979840.0000              RECHARGE =       84511.4688

            TOTAL IN =  3237135360.0000              TOTAL IN =       97986.8516

          OUT:                                     OUT:
          ----                                     ----
             STORAGE =           0.0000               STORAGE =           0.0000
       CONSTANT HEAD =           0.0000         CONSTANT HEAD =           0.0000
               WELLS =  1199886976.0000                 WELLS =       40130.0000
              DRAINS =    59283504.0000                DRAINS =         978.9261
       RIVER LEAKAGE =  1427758720.0000         RIVER LEAKAGE =       41057.7227
     HEAD DEP BOUNDS =   550283776.0000       HEAD DEP BOUNDS =       15822.7871
            RECHARGE =           0.0000              RECHARGE =           0.0000

           TOTAL OUT =  3237212928.0000             TOTAL OUT =       97989.4375

            IN - OUT =      -77568.0000              IN - OUT =          -2.5859

 PERCENT DISCREPANCY =          -0.00     PERCENT DISCREPANCY =          -0.00






         TIME SUMMARY AT END OF TIME STEP  299 IN STRESS PERIOD    2
                    SECONDS     MINUTES      HOURS       DAYS        YEARS
                    -----------------------------------------------------------
   TIME STEP LENGTH 8.64000E+06 1.44000E+05  2400.0     100.000     0.27379    
 STRESS PERIOD TIME 2.58336E+09 4.30560E+07 7.17600E+05  29900.      81.862    
         TOTAL TIME 2.58345E+09 4.30574E+07 7.17624E+05  29901.      81.864    
1
 
 SOLVING FOR HEAD 
     3 CALLS TO PCG ROUTINE FOR TIME STEP 300 IN STRESS PERIOD    2
    14 TOTAL ITERATIONS

 MAXIMUM HEAD CHANGE FOR EACH ITERATION (1 INDICATES THE FIRST INNER ITERATION):

    HEAD CHANGE    HEAD CHANGE    HEAD CHANGE    HEAD CHANGE    HEAD CHANGE 
   LAYER,ROW,COL  LAYER,ROW,COL  LAYER,ROW,COL  LAYER,ROW,COL  LAYER,ROW,COL
 ---------------------------------------------------------------------------
  1 -0.4316E-02  0 -0.6744E-03  0  0.2539E-03  0 -0.1265E-03  0 -0.2847E-04
   (  1, 40,  1)  (  3,  1, 28)  (  3,  1, 31)  (  3,  1, 34)  (  3,  2, 21)
  0 -0.1420E-04  0 -0.4725E-05  0  0.1319E-05  0  0.4526E-06  1 -0.1158E-04
   (  3,  1, 36)  (  3,  1, 24)  (  3,  1, 26)  (  3,  1, 19)  (  1, 27, 23)
  0 -0.9300E-06  0  0.2616E-06  0 -0.1021E-06  1  0.4283E-07
   (  1, 23, 13)  (  2, 27, 23)  (  3,  1, 28)  (  3,  1, 28)

 MAXIMUM RESIDUAL FOR EACH ITERATION (1 INDICATES THE FIRST INNER ITERATION):

    RESIDUAL       RESIDUAL       RESIDUAL       RESIDUAL       RESIDUAL    
   LAYER,ROW,COL  LAYER,ROW,COL  LAYER,ROW,COL  LAYER,ROW,COL  LAYER,ROW,COL
 ---------------------------------------------------------------------------
  1  0.8874      0  0.7658      0  0.2425      0 -0.8670E-01  0 -0.2866E-01
   (  2,  1, 33)  (  1,  2, 34)  (  1,  7, 40)  (  3,  1, 31)  (  3,  1, 17)
  0  0.1098E-01  0 -0.3470E-02  0 -0.1160E-02  0  0.4300E-03  1  0.2047E-01
   (  3,  1, 22)  (  3,  1, 24)  (  3,  2, 20)  (  3,  2,  1)  (  1, 27, 23)
  0 -0.4582E-02  0  0.1374E-02  0  0.3790E-03  1  0.1981E-03
   (  2, 27, 23)  (  1, 26, 24)  (  2, 26, 23)  (  1, 26, 24)



 HEAD/DRAWDOWN PRINTOUT FLAG = 1     TOTAL BUDGET PRINTOUT FLAG = 1
 CELL-BY-CELL FLOW TERM FLAG = 1

 OUTPUT FLAGS FOR EACH LAYER:
          HEAD    DRAWDOWN  HEAD  DRAWDOWN
 LAYER  PRINTOUT  PRINTOUT  SAVE    SAVE
 -----------------------------------------
    1       0         0       1       1
    2       0         0       1       1
    3       0         0       1       1
 UBUDSV SAVING "         STORAGE" ON UNIT 50 AT TIME STEP300, STRESS PERIOD    2
 UBUDSV SAVING "   CONSTANT HEAD" ON UNIT 50 AT TIME STEP300, STRESS PERIOD    2
 UBUDSV SAVING "FLOW RIGHT FACE " ON UNIT 50 AT TIME STEP300, STRESS PERIOD    2
 UBUDSV SAVING "FLOW FRONT FACE " ON UNIT 50 AT TIME STEP300, STRESS PERIOD    2
 UBUDSV SAVING "FLOW LOWER FACE " ON UNIT 50 AT TIME STEP300, STRESS PERIOD    2
 UBUDSV SAVING "           WELLS" ON UNIT 50 AT TIME STEP300, STRESS PERIOD    2
 UBUDSV SAVING "          DRAINS" ON UNIT 50 AT TIME STEP300, STRESS PERIOD    2
 UBUDSV SAVING "   RIVER LEAKAGE" ON UNIT 50 AT TIME STEP300, STRESS PERIOD    2
 UBUDSV SAVING " HEAD DEP BOUNDS" ON UNIT 50 AT TIME STEP300, STRESS PERIOD    2
 UBUDSV SAVING "        RECHARGE" ON UNIT 50 AT TIME STEP300, STRESS PERIOD    2

 SAVING SATURATED THICKNESS AND FLOW TERMS ON UNIT  333 FOR MT3DMS
 BY THE LINK-MT3DMS PACKAGE V7 AT TIME STEP  300, STRESS PERIOD    2


 HEAD WILL BE SAVED ON UNIT   51 AT END OF TIME STEP  300, STRESS PERIOD    2

 DRAWDOWN WILL BE SAVED ON UNIT   52 AT END OF TIME STEP  300, STRESS PERIOD    2
1
  VOLUMETRIC BUDGET FOR ENTIRE MODEL AT END OF TIME STEP  300, STRESS PERIOD   2
  ------------------------------------------------------------------------------

     CUMULATIVE VOLUMES      L**3       RATES FOR THIS TIME STEP      L**3/T
     ------------------                 ------------------------

           IN:                                      IN:
           ---                                      ---
             STORAGE =   711498560.0000               STORAGE =       13429.5283
       CONSTANT HEAD =           0.0000         CONSTANT HEAD =           0.0000
               WELLS =           0.0000                 WELLS =           0.0000
              DRAINS =           0.0000                DRAINS =           0.0000
       RIVER LEAKAGE =           0.0000         RIVER LEAKAGE =           0.0000
     HEAD DEP BOUNDS =           0.0000       HEAD DEP BOUNDS =           0.0000
            RECHARGE =  2535430912.0000              RECHARGE =       84511.4688

            TOTAL IN =  3246929408.0000              TOTAL IN =       97941.0000

          OUT:                                     OUT:
          ----                                     ----
             STORAGE =           0.0000               STORAGE =           0.0000
       CONSTANT HEAD =           0.0000         CONSTANT HEAD =           0.0000
               WELLS =  1203900032.0000                 WELLS =       40130.0000
              DRAINS =    59380948.0000                DRAINS =         974.4243
       RIVER LEAKAGE =  1431861504.0000         RIVER LEAKAGE =       41027.9883
     HEAD DEP BOUNDS =   551864896.0000       HEAD DEP BOUNDS =       15811.3164
            RECHARGE =           0.0000              RECHARGE =           0.0000

           TOTAL OUT =  3247007232.0000             TOTAL OUT =       97943.7344

            IN - OUT =      -77824.0000              IN - OUT =          -2.7344

 PERCENT DISCREPANCY =          -0.00     PERCENT DISCREPANCY =          -0.00






         TIME SUMMARY AT END OF TIME STEP  300 IN STRESS PERIOD    2
                    SECONDS     MINUTES      HOURS       DAYS        YEARS
                    -----------------------------------------------------------
   TIME STEP LENGTH 8.64000E+06 1.44000E+05  2400.0     100.000     0.27379    
 STRESS PERIOD TIME 2.59200E+09 4.32000E+07 7.20000E+05  30000.      82.136    
         TOTAL TIME 2.59209E+09 4.32014E+07 7.20024E+05  30001.      82.138    
1

 Run end date and time (yyyy/mm/dd hh:mm:ss): 2022/10/16 19:40:46
 Elapsed run time:  1.541 Seconds

